                                  MODFLOW-2000
      U.S. GEOLOGICAL SURVEY MODULAR FINITE-DIFFERENCE GROUND-WATER FLOW MODEL
                           VERSION 1.18.01 06/20/2008


 This model run combines GLOBAL and LIST output into this single file.

 GLOBAL LISTING FILE: phreeqc_ex11.lst
                         UNIT    2

 OPENING phreeqc_ex11.dis
 FILE TYPE:DIS   UNIT   10   STATUS:OLD    
 FORMAT:FORMATTED              ACCESS:SEQUENTIAL          

 OPENING phreeqc_ex11.bas6
 FILE TYPE:BAS6   UNIT   11   STATUS:OLD    
 FORMAT:FORMATTED              ACCESS:SEQUENTIAL          

 OPENING phreeqc_ex11.lpf
 FILE TYPE:LPF   UNIT   12   STATUS:OLD    
 FORMAT:FORMATTED              ACCESS:SEQUENTIAL          

 OPENING phreeqc_ex11.pcg
 FILE TYPE:PCG   UNIT   14   STATUS:OLD    
 FORMAT:FORMATTED              ACCESS:SEQUENTIAL          

 OPENING phreeqc_ex11.oc
 FILE TYPE:OC   UNIT   26   STATUS:OLD    
 FORMAT:FORMATTED              ACCESS:SEQUENTIAL          

 OPENING phreeqc_ex11.head
 FILE TYPE:DATA(BINARY)   UNIT   30   STATUS:UNKNOWN
 FORMAT:BINARY                 ACCESS:SEQUENTIAL          

 OPENING phreeqc_ex11.budget
 FILE TYPE:DATA(BINARY)   UNIT   31   STATUS:UNKNOWN
 FORMAT:BINARY                 ACCESS:SEQUENTIAL          

 OPENING phreeqc_ex11.lmt
 FILE TYPE:LMT6   UNIT   28   STATUS:OLD    
 FORMAT:FORMATTED              ACCESS:SEQUENTIAL          

 OPENING phreeqc_ex11.wel
 FILE TYPE:WEL   UNIT   36   STATUS:OLD    
 FORMAT:FORMATTED              ACCESS:SEQUENTIAL          

 THE FREE FORMAT OPTION HAS BEEN SELECTED

 DISCRETIZATION INPUT DATA READ FROM UNIT   10
    1 LAYERS         1 ROWS        40 COLUMNS
  120 STRESS PERIOD(S) IN SIMULATION
 MODEL TIME UNIT IS DAYS
 MODEL LENGTH UNIT IS METERS
 THE GROUND-WATER TRANSPORT PROCESS IS INACTIVE

 THE OBSERVATION PROCESS IS INACTIVE
 THE SENSITIVITY PROCESS IS INACTIVE
 THE PARAMETER-ESTIMATION PROCESS IS INACTIVE

 MODE: FORWARD

  Confining bed flag for each layer:
   0

        401  ELEMENTS OF GX ARRAY USED OUT OF        401
         40  ELEMENTS OF GZ ARRAY USED OUT OF         40
         40  ELEMENTS OF IG ARRAY USED OUT OF         40

                     DELR =  2.000000E-03

                     DELC =   1.00000    

 TOP ELEVATION OF LAYER 1 =   1.00000    

   MODEL LAYER BOTTOM EL. =   0.00000     FOR LAYER   1


 STRESS PERIOD     LENGTH       TIME STEPS     MULTIPLIER FOR DELT    SS FLAG
 ----------------------------------------------------------------------------
        1        2.0000001E-03      1                    1.000         SS
        2        2.0000001E-03      1                    1.000         TR
        3        2.0000001E-03      1                    1.000         TR
        4        2.0000001E-03      1                    1.000         TR
        5        2.0000001E-03      1                    1.000         TR
        6        2.0000001E-03      1                    1.000         TR
        7        2.0000001E-03      1                    1.000         TR
        8        2.0000001E-03      1                    1.000         TR
        9        2.0000001E-03      1                    1.000         TR
       10        2.0000001E-03      1                    1.000         TR
       11        2.0000001E-03      1                    1.000         TR
       12        2.0000001E-03      1                    1.000         TR
       13        2.0000001E-03      1                    1.000         TR
       14        2.0000001E-03      1                    1.000         TR
       15        2.0000001E-03      1                    1.000         TR
       16        2.0000001E-03      1                    1.000         TR
       17        2.0000001E-03      1                    1.000         TR
       18        2.0000001E-03      1                    1.000         TR
       19        2.0000001E-03      1                    1.000         TR
       20        2.0000001E-03      1                    1.000         TR
       21        2.0000001E-03      1                    1.000         TR
       22        2.0000001E-03      1                    1.000         TR
       23        2.0000001E-03      1                    1.000         TR
       24        2.0000001E-03      1                    1.000         TR
       25        2.0000001E-03      1                    1.000         TR
       26        2.0000001E-03      1                    1.000         TR
       27        2.0000001E-03      1                    1.000         TR
       28        2.0000001E-03      1                    1.000         TR
       29        2.0000001E-03      1                    1.000         TR
       30        2.0000001E-03      1                    1.000         TR
       31        2.0000001E-03      1                    1.000         TR
       32        2.0000001E-03      1                    1.000         TR
       33        2.0000001E-03      1                    1.000         TR
       34        2.0000001E-03      1                    1.000         TR
       35        2.0000001E-03      1                    1.000         TR
       36        2.0000001E-03      1                    1.000         TR
       37        2.0000001E-03      1                    1.000         TR
       38        2.0000001E-03      1                    1.000         TR
       39        2.0000001E-03      1                    1.000         TR
       40        2.0000001E-03      1                    1.000         TR
       41        2.0000001E-03      1                    1.000         TR
       42        2.0000001E-03      1                    1.000         TR
       43        2.0000001E-03      1                    1.000         TR
       44        2.0000001E-03      1                    1.000         TR
       45        2.0000001E-03      1                    1.000         TR
       46        2.0000001E-03      1                    1.000         TR
       47        2.0000001E-03      1                    1.000         TR
       48        2.0000001E-03      1                    1.000         TR
       49        2.0000001E-03      1                    1.000         TR
       50        2.0000001E-03      1                    1.000         TR
       51        2.0000001E-03      1                    1.000         TR
       52        2.0000001E-03      1                    1.000         TR
       53        2.0000001E-03      1                    1.000         TR
       54        2.0000001E-03      1                    1.000         TR
       55        2.0000001E-03      1                    1.000         TR
       56        2.0000001E-03      1                    1.000         TR
       57        2.0000001E-03      1                    1.000         TR
       58        2.0000001E-03      1                    1.000         TR
       59        2.0000001E-03      1                    1.000         TR
       60        2.0000001E-03      1                    1.000         TR
       61        2.0000001E-03      1                    1.000         TR
       62        2.0000001E-03      1                    1.000         TR
       63        2.0000001E-03      1                    1.000         TR
       64        2.0000001E-03      1                    1.000         TR
       65        2.0000001E-03      1                    1.000         TR
       66        2.0000001E-03      1                    1.000         TR
       67        2.0000001E-03      1                    1.000         TR
       68        2.0000001E-03      1                    1.000         TR
       69        2.0000001E-03      1                    1.000         TR
       70        2.0000001E-03      1                    1.000         TR
       71        2.0000001E-03      1                    1.000         TR
       72        2.0000001E-03      1                    1.000         TR
       73        2.0000001E-03      1                    1.000         TR
       74        2.0000001E-03      1                    1.000         TR
       75        2.0000001E-03      1                    1.000         TR
       76        2.0000001E-03      1                    1.000         TR
       77        2.0000001E-03      1                    1.000         TR
       78        2.0000001E-03      1                    1.000         TR
       79        2.0000001E-03      1                    1.000         TR
       80        2.0000001E-03      1                    1.000         TR
       81        2.0000001E-03      1                    1.000         TR
       82        2.0000001E-03      1                    1.000         TR
       83        2.0000001E-03      1                    1.000         TR
       84        2.0000001E-03      1                    1.000         TR
       85        2.0000001E-03      1                    1.000         TR
       86        2.0000001E-03      1                    1.000         TR
       87        2.0000001E-03      1                    1.000         TR
       88        2.0000001E-03      1                    1.000         TR
       89        2.0000001E-03      1                    1.000         TR
       90        2.0000001E-03      1                    1.000         TR
       91        2.0000001E-03      1                    1.000         TR
       92        2.0000001E-03      1                    1.000         TR
       93        2.0000001E-03      1                    1.000         TR
       94        2.0000001E-03      1                    1.000         TR
       95        2.0000001E-03      1                    1.000         TR
       96        2.0000001E-03      1                    1.000         TR
       97        2.0000001E-03      1                    1.000         TR
       98        2.0000001E-03      1                    1.000         TR
       99        2.0000001E-03      1                    1.000         TR
      100        2.0000001E-03      1                    1.000         TR
      101        2.0000001E-03      1                    1.000         TR
      102        2.0000001E-03      1                    1.000         TR
      103        2.0000001E-03      1                    1.000         TR
      104        2.0000001E-03      1                    1.000         TR
      105        2.0000001E-03      1                    1.000         TR
      106        2.0000001E-03      1                    1.000         TR
      107        2.0000001E-03      1                    1.000         TR
      108        2.0000001E-03      1                    1.000         TR
      109        2.0000001E-03      1                    1.000         TR
      110        2.0000001E-03      1                    1.000         TR
      111        2.0000001E-03      1                    1.000         TR
      112        2.0000001E-03      1                    1.000         TR
      113        2.0000001E-03      1                    1.000         TR
      114        2.0000001E-03      1                    1.000         TR
      115        2.0000001E-03      1                    1.000         TR
      116        2.0000001E-03      1                    1.000         TR
      117        2.0000001E-03      1                    1.000         TR
      118        2.0000001E-03      1                    1.000         TR
      119        2.0000001E-03      1                    1.000         TR
      120        2.0000001E-03      1                    1.000         TR

 COMBINED STEADY-STATE AND TRANSIENT SIMULATION




 LPF1 -- LAYER PROPERTY FLOW PACKAGE, VERSION 1, 1/11/2000
         INPUT READ FROM UNIT   12
 CELL-BY-CELL FLOWS WILL BE SAVED ON UNIT   31
 HEAD AT CELLS THAT CONVERT TO DRY=  1.00000E-02
 No named parameters

   LAYER FLAGS:
 LAYER       LAYTYP        LAYAVG         CHANI        LAYVKA        LAYWET
 ---------------------------------------------------------------------------
    1             0             0     1.000E+00             0             0

   INTERPRETATION OF LAYER FLAGS:
                        INTERBLOCK     HORIZONTAL    DATA IN
         LAYER TYPE   TRANSMISSIVITY   ANISOTROPY   ARRAY VKA   WETTABILITY
 LAYER      (LAYTYP)      (LAYAVG)       (CHANI)      (LAYVKA)      (LAYWET)
 ---------------------------------------------------------------------------
    1      CONFINED      HARMONIC     1.000E+00    VERTICAL K  NON-WETTABLE

        120 ELEMENTS IN X ARRAY ARE USED BY LPF
          6 ELEMENTS IN IX ARRAY ARE USED BY LPF

 PCG2 -- CONJUGATE GRADIENT SOLUTION PACKAGE, VERSION 2.4, 12/29/98
 MAXIMUM OF     10 CALLS OF SOLUTION ROUTINE
 MAXIMUM OF  30000 INTERNAL ITERATIONS PER CALL TO SOLUTION ROUTINE
 MATRIX PRECONDITIONING TYPE :    1
     600080 ELEMENTS IN X ARRAY ARE USED BY PCG
    2100000 ELEMENTS IN IX ARRAY ARE USED BY PCG
        160 ELEMENTS IN Z ARRAY ARE USED BY PCG

     600200  ELEMENTS OF X ARRAY USED OUT OF     600200
        160  ELEMENTS OF Z ARRAY USED OUT OF        160
    2100006  ELEMENTS OF IX ARRAY USED OUT OF    2100006
          0  ELEMENTS OF XHS ARRAY USED OUT OF          1



                                    SOLUTION BY THE CONJUGATE-GRADIENT METHOD
                                   -------------------------------------------
                    MAXIMUM NUMBER OF CALLS TO PCG ROUTINE =       10
                        MAXIMUM ITERATIONS PER CALL TO PCG =    30000
                               MATRIX PRECONDITIONING TYPE =        1
        RELAXATION FACTOR (ONLY USED WITH PRECOND. TYPE 1) =    0.10000E+01
 PARAMETER OF POLYNOMIAL PRECOND. = 2 (2) OR IS CALCULATED :        2
                         HEAD CHANGE CRITERION FOR CLOSURE =    0.10000E-03
                     RESIDUAL CHANGE CRITERION FOR CLOSURE =    0.10000E-02
            PCG HEAD AND RESIDUAL CHANGE PRINTOUT INTERVAL =      999
     PRINTING FROM SOLVER IS LIMITED(1) OR SUPPRESSED (>1) =        2
                                         DAMPING PARAMETER =    0.10000E+01

 WETTING CAPABILITY IS NOT ACTIVE IN ANY LAYER

    HYD. COND. ALONG ROWS =   1.00000     FOR LAYER   1

      VERTICAL HYD. COND. =   1.00000     FOR LAYER   1

         SPECIFIC STORAGE =  1.000000E-06 FOR LAYER   1
 
 #         0                                                                     
 THE FREE FORMAT OPTION HAS BEEN SELECTED
    1 LAYERS         1 ROWS        40 COLUMNS
  120 STRESS PERIOD(S) IN SIMULATION

 BAS6 -- BASIC PACKAGE, VERSION 6, 1/11/2000 INPUT READ FROM UNIT   11
          5 ELEMENTS IN IR ARRAY ARE USED BY BAS

 WEL6 -- WELL PACKAGE, VERSION 6, 1/11/2000 INPUT READ FROM UNIT   36
 No named parameters
 MAXIMUM OF      1 ACTIVE WELLS AT ONE TIME
 CELL-BY-CELL FLOWS WILL BE SAVED ON UNIT   31
          4 ELEMENTS IN RX ARRAY ARE USED BY WEL

          4  ELEMENTS OF RX ARRAY USED OUT OF          4
          0  ELEMENTS OF RZ ARRAY USED OUT OF          1
          5  ELEMENTS OF IR ARRAY USED OUT OF          5
1
 #         0                                                                     
                                                                                 



                     BOUNDARY ARRAY FOR LAYER   1
 READING ON UNIT   11 WITH FORMAT: (40I3)              

        1   2   3   4   5   6   7   8   9  10  11  12  13  14  15  16  17  18  19  20  21  22  23  24  25  26  27  28  29  30
       31  32  33  34  35  36  37  38  39  40
 ............................................................................................................................
   1    1   1   1   1   1   1   1   1   1   1   1   1   1   1   1   1   1   1   1   1   1   1   1   1   1   1   1   1   1   1
        1   1   1   1   1   1   1   1   1  -1

 AQUIFER HEAD WILL BE SET TO  0.0000     AT ALL NO-FLOW NODES (IBOUND=0).

             INITIAL HEAD =   1.00000     FOR LAYER   1

 OUTPUT CONTROL IS SPECIFIED ONLY AT TIME STEPS FOR WHICH OUTPUT IS DESIRED
 COMPACT CELL-BY-CELL BUDGET FILES WILL BE WRITTEN
 HEAD PRINT FORMAT CODE IS   0    DRAWDOWN PRINT FORMAT CODE IS   0
 HEADS WILL BE SAVED ON UNIT   30    DRAWDOWNS WILL BE SAVED ON UNIT    0


     0 Well parameters
1
                            STRESS PERIOD NO.    1, LENGTH =  0.2000000E-02
                            -----------------------------------------------

                              NUMBER OF TIME STEPS =     1

                               MULTIPLIER FOR DELT =     1.000

                            INITIAL TIME STEP SIZE =  0.2000000E-02

 WELL NO.  LAYER   ROW   COL   STRESS RATE         
 --------------------------------------------------
      1      1      1      1       1.000    

      1 WELL
 
 SOLVING FOR HEAD 

 OUTPUT CONTROL FOR STRESS PERIOD    1   TIME STEP   1
    SAVE HEAD FOR ALL LAYERS
    SAVE BUDGET
 UBDSV2 SAVING "   CONSTANT HEAD" ON UNIT  31 AT TIME STEP  1, STRESS PERIOD   1
 UBDSV1 SAVING "FLOW RIGHT FACE " ON UNIT  31 AT TIME STEP  1, STRESS PERIOD   1
 UBDSV4 SAVING "           WELLS" ON UNIT  31 AT TIME STEP  1, STRESS PERIOD   1


 ***Link-MT3DMS Package***
 OPENING LINK-MT3DMS OUTPUT FILE: phreeqc_ex11.flo                                                                                                                                                                                        
 ON UNIT NUMBER:   333
 FILE TYPE: UNFORMATTED
 HEADER OPTION: STANDARD
 ***Link-MT3DMS Package***


 SAVING SATURATED THICKNESS AND FLOW TERMS ON UNIT  333 FOR MT3DMS
 BY THE LINK-MT3DMS PACKAGE V6.3 AT TIME STEP    1, STRESS PERIOD    1


 HEAD WILL BE SAVED ON UNIT   30 AT END OF TIME STEP   1, STRESS PERIOD    1
1
  VOLUMETRIC BUDGET FOR ENTIRE MODEL AT END OF TIME STEP  1 IN STRESS PERIOD   1
  ------------------------------------------------------------------------------

     CUMULATIVE VOLUMES      L**3       RATES FOR THIS TIME STEP      L**3/T
     ------------------                 ------------------------

           IN:                                      IN:
           ---                                      ---
             STORAGE =           0.0000               STORAGE =           0.0000
       CONSTANT HEAD =           0.0000         CONSTANT HEAD =           0.0000
               WELLS =       2.0000E-03                 WELLS =           1.0000

            TOTAL IN =       2.0000E-03              TOTAL IN =           1.0000

          OUT:                                     OUT:
          ----                                     ----
             STORAGE =           0.0000               STORAGE =           0.0000
       CONSTANT HEAD =       2.0000E-03         CONSTANT HEAD =           1.0000
               WELLS =           0.0000                 WELLS =           0.0000

           TOTAL OUT =       2.0000E-03             TOTAL OUT =           1.0000

            IN - OUT =           0.0000              IN - OUT =           0.0000

 PERCENT DISCREPANCY =           0.00     PERCENT DISCREPANCY =           0.00






          TIME SUMMARY AT END OF TIME STEP   1 IN STRESS PERIOD    1
                    SECONDS     MINUTES      HOURS       DAYS        YEARS
                    -----------------------------------------------------------
   TIME STEP LENGTH  172.80      2.8800     4.80000E-02 2.00000E-03 5.47570E-06
 STRESS PERIOD TIME  172.80      2.8800     4.80000E-02 2.00000E-03 5.47570E-06
         TOTAL TIME  172.80      2.8800     4.80000E-02 2.00000E-03 5.47570E-06
1
1
                            STRESS PERIOD NO.    2, LENGTH =  0.2000000E-02
                            -----------------------------------------------

                              NUMBER OF TIME STEPS =     1

                               MULTIPLIER FOR DELT =     1.000

                            INITIAL TIME STEP SIZE =  0.2000000E-02

 WELL NO.  LAYER   ROW   COL   STRESS RATE         
 --------------------------------------------------
      1      1      1      1       1.000    

      1 WELL
 
 SOLVING FOR HEAD 

 OUTPUT CONTROL FOR STRESS PERIOD    2   TIME STEP   1
    SAVE HEAD FOR ALL LAYERS
    SAVE BUDGET
 UBDSV1 SAVING "         STORAGE" ON UNIT  31 AT TIME STEP  1, STRESS PERIOD   2
 UBDSV2 SAVING "   CONSTANT HEAD" ON UNIT  31 AT TIME STEP  1, STRESS PERIOD   2
 UBDSV1 SAVING "FLOW RIGHT FACE " ON UNIT  31 AT TIME STEP  1, STRESS PERIOD   2
 UBDSV4 SAVING "           WELLS" ON UNIT  31 AT TIME STEP  1, STRESS PERIOD   2

 SAVING SATURATED THICKNESS AND FLOW TERMS ON UNIT  333 FOR MT3DMS
 BY THE LINK-MT3DMS PACKAGE V6.3 AT TIME STEP    1, STRESS PERIOD    2


 HEAD WILL BE SAVED ON UNIT   30 AT END OF TIME STEP   1, STRESS PERIOD    2
1
  VOLUMETRIC BUDGET FOR ENTIRE MODEL AT END OF TIME STEP  1 IN STRESS PERIOD   2
  ------------------------------------------------------------------------------

     CUMULATIVE VOLUMES      L**3       RATES FOR THIS TIME STEP      L**3/T
     ------------------                 ------------------------

           IN:                                      IN:
           ---                                      ---
             STORAGE =       1.1599E-15               STORAGE =       5.7997E-13
       CONSTANT HEAD =           0.0000         CONSTANT HEAD =           0.0000
               WELLS =       4.0000E-03                 WELLS =           1.0000

            TOTAL IN =       4.0000E-03              TOTAL IN =           1.0000

          OUT:                                     OUT:
          ----                                     ----
             STORAGE =       1.2104E-15               STORAGE =       6.0521E-13
       CONSTANT HEAD =       4.0000E-03         CONSTANT HEAD =           1.0000
               WELLS =           0.0000                 WELLS =           0.0000

           TOTAL OUT =       4.0000E-03             TOTAL OUT =           1.0000

            IN - OUT =           0.0000              IN - OUT =           0.0000

 PERCENT DISCREPANCY =           0.00     PERCENT DISCREPANCY =           0.00






          TIME SUMMARY AT END OF TIME STEP   1 IN STRESS PERIOD    2
                    SECONDS     MINUTES      HOURS       DAYS        YEARS
                    -----------------------------------------------------------
   TIME STEP LENGTH  172.80      2.8800     4.80000E-02 2.00000E-03 5.47570E-06
 STRESS PERIOD TIME  172.80      2.8800     4.80000E-02 2.00000E-03 5.47570E-06
         TOTAL TIME  345.60      5.7600     9.60000E-02 4.00000E-03 1.09514E-05
1
1
                            STRESS PERIOD NO.    3, LENGTH =  0.2000000E-02
                            -----------------------------------------------

                              NUMBER OF TIME STEPS =     1

                               MULTIPLIER FOR DELT =     1.000

                            INITIAL TIME STEP SIZE =  0.2000000E-02

 WELL NO.  LAYER   ROW   COL   STRESS RATE         
 --------------------------------------------------
      1      1      1      1       1.000    

      1 WELL
 
 SOLVING FOR HEAD 

 OUTPUT CONTROL FOR STRESS PERIOD    3   TIME STEP   1
    SAVE HEAD FOR ALL LAYERS
    SAVE BUDGET
 UBDSV1 SAVING "         STORAGE" ON UNIT  31 AT TIME STEP  1, STRESS PERIOD   3
 UBDSV2 SAVING "   CONSTANT HEAD" ON UNIT  31 AT TIME STEP  1, STRESS PERIOD   3
 UBDSV1 SAVING "FLOW RIGHT FACE " ON UNIT  31 AT TIME STEP  1, STRESS PERIOD   3
 UBDSV4 SAVING "           WELLS" ON UNIT  31 AT TIME STEP  1, STRESS PERIOD   3

 SAVING SATURATED THICKNESS AND FLOW TERMS ON UNIT  333 FOR MT3DMS
 BY THE LINK-MT3DMS PACKAGE V6.3 AT TIME STEP    1, STRESS PERIOD    3


 HEAD WILL BE SAVED ON UNIT   30 AT END OF TIME STEP   1, STRESS PERIOD    3
1
  VOLUMETRIC BUDGET FOR ENTIRE MODEL AT END OF TIME STEP  1 IN STRESS PERIOD   3
  ------------------------------------------------------------------------------

     CUMULATIVE VOLUMES      L**3       RATES FOR THIS TIME STEP      L**3/T
     ------------------                 ------------------------

           IN:                                      IN:
           ---                                      ---
             STORAGE =       2.3199E-15               STORAGE =       5.7997E-13
       CONSTANT HEAD =           0.0000         CONSTANT HEAD =           0.0000
               WELLS =       6.0000E-03                 WELLS =           1.0000

            TOTAL IN =       6.0000E-03              TOTAL IN =           1.0000

          OUT:                                     OUT:
          ----                                     ----
             STORAGE =       2.4209E-15               STORAGE =       6.0521E-13
       CONSTANT HEAD =       6.0000E-03         CONSTANT HEAD =           1.0000
               WELLS =           0.0000                 WELLS =           0.0000

           TOTAL OUT =       6.0000E-03             TOTAL OUT =           1.0000

            IN - OUT =           0.0000              IN - OUT =           0.0000

 PERCENT DISCREPANCY =           0.00     PERCENT DISCREPANCY =           0.00






          TIME SUMMARY AT END OF TIME STEP   1 IN STRESS PERIOD    3
                    SECONDS     MINUTES      HOURS       DAYS        YEARS
                    -----------------------------------------------------------
   TIME STEP LENGTH  172.80      2.8800     4.80000E-02 2.00000E-03 5.47570E-06
 STRESS PERIOD TIME  172.80      2.8800     4.80000E-02 2.00000E-03 5.47570E-06
         TOTAL TIME  518.40      8.6400     0.14400     6.00000E-03 1.64271E-05
1
1
                            STRESS PERIOD NO.    4, LENGTH =  0.2000000E-02
                            -----------------------------------------------

                              NUMBER OF TIME STEPS =     1

                               MULTIPLIER FOR DELT =     1.000

                            INITIAL TIME STEP SIZE =  0.2000000E-02

 WELL NO.  LAYER   ROW   COL   STRESS RATE         
 --------------------------------------------------
      1      1      1      1       1.000    

      1 WELL
 
 SOLVING FOR HEAD 

 OUTPUT CONTROL FOR STRESS PERIOD    4   TIME STEP   1
    SAVE HEAD FOR ALL LAYERS
    SAVE BUDGET
 UBDSV1 SAVING "         STORAGE" ON UNIT  31 AT TIME STEP  1, STRESS PERIOD   4
 UBDSV2 SAVING "   CONSTANT HEAD" ON UNIT  31 AT TIME STEP  1, STRESS PERIOD   4
 UBDSV1 SAVING "FLOW RIGHT FACE " ON UNIT  31 AT TIME STEP  1, STRESS PERIOD   4
 UBDSV4 SAVING "           WELLS" ON UNIT  31 AT TIME STEP  1, STRESS PERIOD   4

 SAVING SATURATED THICKNESS AND FLOW TERMS ON UNIT  333 FOR MT3DMS
 BY THE LINK-MT3DMS PACKAGE V6.3 AT TIME STEP    1, STRESS PERIOD    4


 HEAD WILL BE SAVED ON UNIT   30 AT END OF TIME STEP   1, STRESS PERIOD    4
1
  VOLUMETRIC BUDGET FOR ENTIRE MODEL AT END OF TIME STEP  1 IN STRESS PERIOD   4
  ------------------------------------------------------------------------------

     CUMULATIVE VOLUMES      L**3       RATES FOR THIS TIME STEP      L**3/T
     ------------------                 ------------------------

           IN:                                      IN:
           ---                                      ---
             STORAGE =       3.4798E-15               STORAGE =       5.7997E-13
       CONSTANT HEAD =           0.0000         CONSTANT HEAD =           0.0000
               WELLS =       8.0000E-03                 WELLS =           1.0000

            TOTAL IN =       8.0000E-03              TOTAL IN =           1.0000

          OUT:                                     OUT:
          ----                                     ----
             STORAGE =       3.6313E-15               STORAGE =       6.0521E-13
       CONSTANT HEAD =       8.0000E-03         CONSTANT HEAD =           1.0000
               WELLS =           0.0000                 WELLS =           0.0000

           TOTAL OUT =       8.0000E-03             TOTAL OUT =           1.0000

            IN - OUT =           0.0000              IN - OUT =           0.0000

 PERCENT DISCREPANCY =           0.00     PERCENT DISCREPANCY =           0.00






          TIME SUMMARY AT END OF TIME STEP   1 IN STRESS PERIOD    4
                    SECONDS     MINUTES      HOURS       DAYS        YEARS
                    -----------------------------------------------------------
   TIME STEP LENGTH  172.80      2.8800     4.80000E-02 2.00000E-03 5.47570E-06
 STRESS PERIOD TIME  172.80      2.8800     4.80000E-02 2.00000E-03 5.47570E-06
         TOTAL TIME  691.20      11.520     0.19200     8.00000E-03 2.19028E-05
1
1
                            STRESS PERIOD NO.    5, LENGTH =  0.2000000E-02
                            -----------------------------------------------

                              NUMBER OF TIME STEPS =     1

                               MULTIPLIER FOR DELT =     1.000

                            INITIAL TIME STEP SIZE =  0.2000000E-02

 WELL NO.  LAYER   ROW   COL   STRESS RATE         
 --------------------------------------------------
      1      1      1      1       1.000    

      1 WELL
 
 SOLVING FOR HEAD 

 OUTPUT CONTROL FOR STRESS PERIOD    5   TIME STEP   1
    SAVE HEAD FOR ALL LAYERS
    SAVE BUDGET
 UBDSV1 SAVING "         STORAGE" ON UNIT  31 AT TIME STEP  1, STRESS PERIOD   5
 UBDSV2 SAVING "   CONSTANT HEAD" ON UNIT  31 AT TIME STEP  1, STRESS PERIOD   5
 UBDSV1 SAVING "FLOW RIGHT FACE " ON UNIT  31 AT TIME STEP  1, STRESS PERIOD   5
 UBDSV4 SAVING "           WELLS" ON UNIT  31 AT TIME STEP  1, STRESS PERIOD   5

 SAVING SATURATED THICKNESS AND FLOW TERMS ON UNIT  333 FOR MT3DMS
 BY THE LINK-MT3DMS PACKAGE V6.3 AT TIME STEP    1, STRESS PERIOD    5


 HEAD WILL BE SAVED ON UNIT   30 AT END OF TIME STEP   1, STRESS PERIOD    5
1
  VOLUMETRIC BUDGET FOR ENTIRE MODEL AT END OF TIME STEP  1 IN STRESS PERIOD   5
  ------------------------------------------------------------------------------

     CUMULATIVE VOLUMES      L**3       RATES FOR THIS TIME STEP      L**3/T
     ------------------                 ------------------------

           IN:                                      IN:
           ---                                      ---
             STORAGE =       4.6397E-15               STORAGE =       5.7997E-13
       CONSTANT HEAD =           0.0000         CONSTANT HEAD =           0.0000
               WELLS =       1.0000E-02                 WELLS =           1.0000

            TOTAL IN =       1.0000E-02              TOTAL IN =           1.0000

          OUT:                                     OUT:
          ----                                     ----
             STORAGE =       4.8417E-15               STORAGE =       6.0521E-13
       CONSTANT HEAD =       1.0000E-02         CONSTANT HEAD =           1.0000
               WELLS =           0.0000                 WELLS =           0.0000

           TOTAL OUT =       1.0000E-02             TOTAL OUT =           1.0000

            IN - OUT =           0.0000              IN - OUT =           0.0000

 PERCENT DISCREPANCY =           0.00     PERCENT DISCREPANCY =           0.00






          TIME SUMMARY AT END OF TIME STEP   1 IN STRESS PERIOD    5
                    SECONDS     MINUTES      HOURS       DAYS        YEARS
                    -----------------------------------------------------------
   TIME STEP LENGTH  172.80      2.8800     4.80000E-02 2.00000E-03 5.47570E-06
 STRESS PERIOD TIME  172.80      2.8800     4.80000E-02 2.00000E-03 5.47570E-06
         TOTAL TIME  864.00      14.400     0.24000     1.00000E-02 2.73785E-05
1
1
                            STRESS PERIOD NO.    6, LENGTH =  0.2000000E-02
                            -----------------------------------------------

                              NUMBER OF TIME STEPS =     1

                               MULTIPLIER FOR DELT =     1.000

                            INITIAL TIME STEP SIZE =  0.2000000E-02

 WELL NO.  LAYER   ROW   COL   STRESS RATE         
 --------------------------------------------------
      1      1      1      1       1.000    

      1 WELL
 
 SOLVING FOR HEAD 

 OUTPUT CONTROL FOR STRESS PERIOD    6   TIME STEP   1
    SAVE HEAD FOR ALL LAYERS
    SAVE BUDGET
 UBDSV1 SAVING "         STORAGE" ON UNIT  31 AT TIME STEP  1, STRESS PERIOD   6
 UBDSV2 SAVING "   CONSTANT HEAD" ON UNIT  31 AT TIME STEP  1, STRESS PERIOD   6
 UBDSV1 SAVING "FLOW RIGHT FACE " ON UNIT  31 AT TIME STEP  1, STRESS PERIOD   6
 UBDSV4 SAVING "           WELLS" ON UNIT  31 AT TIME STEP  1, STRESS PERIOD   6

 SAVING SATURATED THICKNESS AND FLOW TERMS ON UNIT  333 FOR MT3DMS
 BY THE LINK-MT3DMS PACKAGE V6.3 AT TIME STEP    1, STRESS PERIOD    6


 HEAD WILL BE SAVED ON UNIT   30 AT END OF TIME STEP   1, STRESS PERIOD    6
1
  VOLUMETRIC BUDGET FOR ENTIRE MODEL AT END OF TIME STEP  1 IN STRESS PERIOD   6
  ------------------------------------------------------------------------------

     CUMULATIVE VOLUMES      L**3       RATES FOR THIS TIME STEP      L**3/T
     ------------------                 ------------------------

           IN:                                      IN:
           ---                                      ---
             STORAGE =       5.7997E-15               STORAGE =       5.7997E-13
       CONSTANT HEAD =           0.0000         CONSTANT HEAD =           0.0000
               WELLS =       1.2000E-02                 WELLS =           1.0000

            TOTAL IN =       1.2000E-02              TOTAL IN =           1.0000

          OUT:                                     OUT:
          ----                                     ----
             STORAGE =       6.0521E-15               STORAGE =       6.0521E-13
       CONSTANT HEAD =       1.2000E-02         CONSTANT HEAD =           1.0000
               WELLS =           0.0000                 WELLS =           0.0000

           TOTAL OUT =       1.2000E-02             TOTAL OUT =           1.0000

            IN - OUT =           0.0000              IN - OUT =           0.0000

 PERCENT DISCREPANCY =           0.00     PERCENT DISCREPANCY =           0.00






          TIME SUMMARY AT END OF TIME STEP   1 IN STRESS PERIOD    6
                    SECONDS     MINUTES      HOURS       DAYS        YEARS
                    -----------------------------------------------------------
   TIME STEP LENGTH  172.80      2.8800     4.80000E-02 2.00000E-03 5.47570E-06
 STRESS PERIOD TIME  172.80      2.8800     4.80000E-02 2.00000E-03 5.47570E-06
         TOTAL TIME  1036.8      17.280     0.28800     1.20000E-02 3.28542E-05
1
1
                            STRESS PERIOD NO.    7, LENGTH =  0.2000000E-02
                            -----------------------------------------------

                              NUMBER OF TIME STEPS =     1

                               MULTIPLIER FOR DELT =     1.000

                            INITIAL TIME STEP SIZE =  0.2000000E-02

 WELL NO.  LAYER   ROW   COL   STRESS RATE         
 --------------------------------------------------
      1      1      1      1       1.000    

      1 WELL
 
 SOLVING FOR HEAD 

 OUTPUT CONTROL FOR STRESS PERIOD    7   TIME STEP   1
    SAVE HEAD FOR ALL LAYERS
    SAVE BUDGET
 UBDSV1 SAVING "         STORAGE" ON UNIT  31 AT TIME STEP  1, STRESS PERIOD   7
 UBDSV2 SAVING "   CONSTANT HEAD" ON UNIT  31 AT TIME STEP  1, STRESS PERIOD   7
 UBDSV1 SAVING "FLOW RIGHT FACE " ON UNIT  31 AT TIME STEP  1, STRESS PERIOD   7
 UBDSV4 SAVING "           WELLS" ON UNIT  31 AT TIME STEP  1, STRESS PERIOD   7

 SAVING SATURATED THICKNESS AND FLOW TERMS ON UNIT  333 FOR MT3DMS
 BY THE LINK-MT3DMS PACKAGE V6.3 AT TIME STEP    1, STRESS PERIOD    7


 HEAD WILL BE SAVED ON UNIT   30 AT END OF TIME STEP   1, STRESS PERIOD    7
1
  VOLUMETRIC BUDGET FOR ENTIRE MODEL AT END OF TIME STEP  1 IN STRESS PERIOD   7
  ------------------------------------------------------------------------------

     CUMULATIVE VOLUMES      L**3       RATES FOR THIS TIME STEP      L**3/T
     ------------------                 ------------------------

           IN:                                      IN:
           ---                                      ---
             STORAGE =       6.9596E-15               STORAGE =       5.7997E-13
       CONSTANT HEAD =           0.0000         CONSTANT HEAD =           0.0000
               WELLS =       1.4000E-02                 WELLS =           1.0000

            TOTAL IN =       1.4000E-02              TOTAL IN =           1.0000

          OUT:                                     OUT:
          ----                                     ----
             STORAGE =       7.2626E-15               STORAGE =       6.0521E-13
       CONSTANT HEAD =       1.4000E-02         CONSTANT HEAD =           1.0000
               WELLS =           0.0000                 WELLS =           0.0000

           TOTAL OUT =       1.4000E-02             TOTAL OUT =           1.0000

            IN - OUT =           0.0000              IN - OUT =           0.0000

 PERCENT DISCREPANCY =           0.00     PERCENT DISCREPANCY =           0.00






          TIME SUMMARY AT END OF TIME STEP   1 IN STRESS PERIOD    7
                    SECONDS     MINUTES      HOURS       DAYS        YEARS
                    -----------------------------------------------------------
   TIME STEP LENGTH  172.80      2.8800     4.80000E-02 2.00000E-03 5.47570E-06
 STRESS PERIOD TIME  172.80      2.8800     4.80000E-02 2.00000E-03 5.47570E-06
         TOTAL TIME  1209.6      20.160     0.33600     1.40000E-02 3.83299E-05
1
1
                            STRESS PERIOD NO.    8, LENGTH =  0.2000000E-02
                            -----------------------------------------------

                              NUMBER OF TIME STEPS =     1

                               MULTIPLIER FOR DELT =     1.000

                            INITIAL TIME STEP SIZE =  0.2000000E-02

 WELL NO.  LAYER   ROW   COL   STRESS RATE         
 --------------------------------------------------
      1      1      1      1       1.000    

      1 WELL
 
 SOLVING FOR HEAD 

 OUTPUT CONTROL FOR STRESS PERIOD    8   TIME STEP   1
    SAVE HEAD FOR ALL LAYERS
    SAVE BUDGET
 UBDSV1 SAVING "         STORAGE" ON UNIT  31 AT TIME STEP  1, STRESS PERIOD   8
 UBDSV2 SAVING "   CONSTANT HEAD" ON UNIT  31 AT TIME STEP  1, STRESS PERIOD   8
 UBDSV1 SAVING "FLOW RIGHT FACE " ON UNIT  31 AT TIME STEP  1, STRESS PERIOD   8
 UBDSV4 SAVING "           WELLS" ON UNIT  31 AT TIME STEP  1, STRESS PERIOD   8

 SAVING SATURATED THICKNESS AND FLOW TERMS ON UNIT  333 FOR MT3DMS
 BY THE LINK-MT3DMS PACKAGE V6.3 AT TIME STEP    1, STRESS PERIOD    8


 HEAD WILL BE SAVED ON UNIT   30 AT END OF TIME STEP   1, STRESS PERIOD    8
1
  VOLUMETRIC BUDGET FOR ENTIRE MODEL AT END OF TIME STEP  1 IN STRESS PERIOD   8
  ------------------------------------------------------------------------------

     CUMULATIVE VOLUMES      L**3       RATES FOR THIS TIME STEP      L**3/T
     ------------------                 ------------------------

           IN:                                      IN:
           ---                                      ---
             STORAGE =       8.1195E-15               STORAGE =       5.7997E-13
       CONSTANT HEAD =           0.0000         CONSTANT HEAD =           0.0000
               WELLS =       1.6000E-02                 WELLS =           1.0000

            TOTAL IN =       1.6000E-02              TOTAL IN =           1.0000

          OUT:                                     OUT:
          ----                                     ----
             STORAGE =       8.4730E-15               STORAGE =       6.0521E-13
       CONSTANT HEAD =       1.6000E-02         CONSTANT HEAD =           1.0000
               WELLS =           0.0000                 WELLS =           0.0000

           TOTAL OUT =       1.6000E-02             TOTAL OUT =           1.0000

            IN - OUT =           0.0000              IN - OUT =           0.0000

 PERCENT DISCREPANCY =           0.00     PERCENT DISCREPANCY =           0.00






          TIME SUMMARY AT END OF TIME STEP   1 IN STRESS PERIOD    8
                    SECONDS     MINUTES      HOURS       DAYS        YEARS
                    -----------------------------------------------------------
   TIME STEP LENGTH  172.80      2.8800     4.80000E-02 2.00000E-03 5.47570E-06
 STRESS PERIOD TIME  172.80      2.8800     4.80000E-02 2.00000E-03 5.47570E-06
         TOTAL TIME  1382.4      23.040     0.38400     1.60000E-02 4.38056E-05
1
1
                            STRESS PERIOD NO.    9, LENGTH =  0.2000000E-02
                            -----------------------------------------------

                              NUMBER OF TIME STEPS =     1

                               MULTIPLIER FOR DELT =     1.000

                            INITIAL TIME STEP SIZE =  0.2000000E-02

 WELL NO.  LAYER   ROW   COL   STRESS RATE         
 --------------------------------------------------
      1      1      1      1       1.000    

      1 WELL
 
 SOLVING FOR HEAD 

 OUTPUT CONTROL FOR STRESS PERIOD    9   TIME STEP   1
    SAVE HEAD FOR ALL LAYERS
    SAVE BUDGET
 UBDSV1 SAVING "         STORAGE" ON UNIT  31 AT TIME STEP  1, STRESS PERIOD   9
 UBDSV2 SAVING "   CONSTANT HEAD" ON UNIT  31 AT TIME STEP  1, STRESS PERIOD   9
 UBDSV1 SAVING "FLOW RIGHT FACE " ON UNIT  31 AT TIME STEP  1, STRESS PERIOD   9
 UBDSV4 SAVING "           WELLS" ON UNIT  31 AT TIME STEP  1, STRESS PERIOD   9

 SAVING SATURATED THICKNESS AND FLOW TERMS ON UNIT  333 FOR MT3DMS
 BY THE LINK-MT3DMS PACKAGE V6.3 AT TIME STEP    1, STRESS PERIOD    9


 HEAD WILL BE SAVED ON UNIT   30 AT END OF TIME STEP   1, STRESS PERIOD    9
1
  VOLUMETRIC BUDGET FOR ENTIRE MODEL AT END OF TIME STEP  1 IN STRESS PERIOD   9
  ------------------------------------------------------------------------------

     CUMULATIVE VOLUMES      L**3       RATES FOR THIS TIME STEP      L**3/T
     ------------------                 ------------------------

           IN:                                      IN:
           ---                                      ---
             STORAGE =       9.2795E-15               STORAGE =       5.7997E-13
       CONSTANT HEAD =           0.0000         CONSTANT HEAD =           0.0000
               WELLS =       1.8000E-02                 WELLS =           1.0000

            TOTAL IN =       1.8000E-02              TOTAL IN =           1.0000

          OUT:                                     OUT:
          ----                                     ----
             STORAGE =       9.6834E-15               STORAGE =       6.0521E-13
       CONSTANT HEAD =       1.8000E-02         CONSTANT HEAD =           1.0000
               WELLS =           0.0000                 WELLS =           0.0000

           TOTAL OUT =       1.8000E-02             TOTAL OUT =           1.0000

            IN - OUT =           0.0000              IN - OUT =           0.0000

 PERCENT DISCREPANCY =           0.00     PERCENT DISCREPANCY =           0.00






          TIME SUMMARY AT END OF TIME STEP   1 IN STRESS PERIOD    9
                    SECONDS     MINUTES      HOURS       DAYS        YEARS
                    -----------------------------------------------------------
   TIME STEP LENGTH  172.80      2.8800     4.80000E-02 2.00000E-03 5.47570E-06
 STRESS PERIOD TIME  172.80      2.8800     4.80000E-02 2.00000E-03 5.47570E-06
         TOTAL TIME  1555.2      25.920     0.43200     1.80000E-02 4.92813E-05
1
1
                            STRESS PERIOD NO.   10, LENGTH =  0.2000000E-02
                            -----------------------------------------------

                              NUMBER OF TIME STEPS =     1

                               MULTIPLIER FOR DELT =     1.000

                            INITIAL TIME STEP SIZE =  0.2000000E-02

 WELL NO.  LAYER   ROW   COL   STRESS RATE         
 --------------------------------------------------
      1      1      1      1       1.000    

      1 WELL
 
 SOLVING FOR HEAD 

 OUTPUT CONTROL FOR STRESS PERIOD   10   TIME STEP   1
    SAVE HEAD FOR ALL LAYERS
    SAVE BUDGET
 UBDSV1 SAVING "         STORAGE" ON UNIT  31 AT TIME STEP  1, STRESS PERIOD  10
 UBDSV2 SAVING "   CONSTANT HEAD" ON UNIT  31 AT TIME STEP  1, STRESS PERIOD  10
 UBDSV1 SAVING "FLOW RIGHT FACE " ON UNIT  31 AT TIME STEP  1, STRESS PERIOD  10
 UBDSV4 SAVING "           WELLS" ON UNIT  31 AT TIME STEP  1, STRESS PERIOD  10

 SAVING SATURATED THICKNESS AND FLOW TERMS ON UNIT  333 FOR MT3DMS
 BY THE LINK-MT3DMS PACKAGE V6.3 AT TIME STEP    1, STRESS PERIOD   10


 HEAD WILL BE SAVED ON UNIT   30 AT END OF TIME STEP   1, STRESS PERIOD   10
1
  VOLUMETRIC BUDGET FOR ENTIRE MODEL AT END OF TIME STEP  1 IN STRESS PERIOD  10
  ------------------------------------------------------------------------------

     CUMULATIVE VOLUMES      L**3       RATES FOR THIS TIME STEP      L**3/T
     ------------------                 ------------------------

           IN:                                      IN:
           ---                                      ---
             STORAGE =       1.0439E-14               STORAGE =       5.7997E-13
       CONSTANT HEAD =           0.0000         CONSTANT HEAD =           0.0000
               WELLS =       2.0000E-02                 WELLS =           1.0000

            TOTAL IN =       2.0000E-02              TOTAL IN =           1.0000

          OUT:                                     OUT:
          ----                                     ----
             STORAGE =       1.0894E-14               STORAGE =       6.0521E-13
       CONSTANT HEAD =       2.0000E-02         CONSTANT HEAD =           1.0000
               WELLS =           0.0000                 WELLS =           0.0000

           TOTAL OUT =       2.0000E-02             TOTAL OUT =           1.0000

            IN - OUT =           0.0000              IN - OUT =           0.0000

 PERCENT DISCREPANCY =           0.00     PERCENT DISCREPANCY =           0.00






          TIME SUMMARY AT END OF TIME STEP   1 IN STRESS PERIOD   10
                    SECONDS     MINUTES      HOURS       DAYS        YEARS
                    -----------------------------------------------------------
   TIME STEP LENGTH  172.80      2.8800     4.80000E-02 2.00000E-03 5.47570E-06
 STRESS PERIOD TIME  172.80      2.8800     4.80000E-02 2.00000E-03 5.47570E-06
         TOTAL TIME  1728.0      28.800     0.48000     2.00000E-02 5.47570E-05
1
1
                            STRESS PERIOD NO.   11, LENGTH =  0.2000000E-02
                            -----------------------------------------------

                              NUMBER OF TIME STEPS =     1

                               MULTIPLIER FOR DELT =     1.000

                            INITIAL TIME STEP SIZE =  0.2000000E-02

 WELL NO.  LAYER   ROW   COL   STRESS RATE         
 --------------------------------------------------
      1      1      1      1       1.000    

      1 WELL
 
 SOLVING FOR HEAD 

 OUTPUT CONTROL FOR STRESS PERIOD   11   TIME STEP   1
    SAVE HEAD FOR ALL LAYERS
    SAVE BUDGET
 UBDSV1 SAVING "         STORAGE" ON UNIT  31 AT TIME STEP  1, STRESS PERIOD  11
 UBDSV2 SAVING "   CONSTANT HEAD" ON UNIT  31 AT TIME STEP  1, STRESS PERIOD  11
 UBDSV1 SAVING "FLOW RIGHT FACE " ON UNIT  31 AT TIME STEP  1, STRESS PERIOD  11
 UBDSV4 SAVING "           WELLS" ON UNIT  31 AT TIME STEP  1, STRESS PERIOD  11

 SAVING SATURATED THICKNESS AND FLOW TERMS ON UNIT  333 FOR MT3DMS
 BY THE LINK-MT3DMS PACKAGE V6.3 AT TIME STEP    1, STRESS PERIOD   11


 HEAD WILL BE SAVED ON UNIT   30 AT END OF TIME STEP   1, STRESS PERIOD   11
1
  VOLUMETRIC BUDGET FOR ENTIRE MODEL AT END OF TIME STEP  1 IN STRESS PERIOD  11
  ------------------------------------------------------------------------------

     CUMULATIVE VOLUMES      L**3       RATES FOR THIS TIME STEP      L**3/T
     ------------------                 ------------------------

           IN:                                      IN:
           ---                                      ---
             STORAGE =       1.1599E-14               STORAGE =       5.7997E-13
       CONSTANT HEAD =           0.0000         CONSTANT HEAD =           0.0000
               WELLS =       2.2000E-02                 WELLS =           1.0000

            TOTAL IN =       2.2000E-02              TOTAL IN =           1.0000

          OUT:                                     OUT:
          ----                                     ----
             STORAGE =       1.2104E-14               STORAGE =       6.0521E-13
       CONSTANT HEAD =       2.2000E-02         CONSTANT HEAD =           1.0000
               WELLS =           0.0000                 WELLS =           0.0000

           TOTAL OUT =       2.2000E-02             TOTAL OUT =           1.0000

            IN - OUT =           0.0000              IN - OUT =           0.0000

 PERCENT DISCREPANCY =           0.00     PERCENT DISCREPANCY =           0.00






          TIME SUMMARY AT END OF TIME STEP   1 IN STRESS PERIOD   11
                    SECONDS     MINUTES      HOURS       DAYS        YEARS
                    -----------------------------------------------------------
   TIME STEP LENGTH  172.80      2.8800     4.80000E-02 2.00000E-03 5.47570E-06
 STRESS PERIOD TIME  172.80      2.8800     4.80000E-02 2.00000E-03 5.47570E-06
         TOTAL TIME  1900.8      31.680     0.52800     2.20000E-02 6.02327E-05
1
1
                            STRESS PERIOD NO.   12, LENGTH =  0.2000000E-02
                            -----------------------------------------------

                              NUMBER OF TIME STEPS =     1

                               MULTIPLIER FOR DELT =     1.000

                            INITIAL TIME STEP SIZE =  0.2000000E-02

 WELL NO.  LAYER   ROW   COL   STRESS RATE         
 --------------------------------------------------
      1      1      1      1       1.000    

      1 WELL
 
 SOLVING FOR HEAD 

 OUTPUT CONTROL FOR STRESS PERIOD   12   TIME STEP   1
    SAVE HEAD FOR ALL LAYERS
    SAVE BUDGET
 UBDSV1 SAVING "         STORAGE" ON UNIT  31 AT TIME STEP  1, STRESS PERIOD  12
 UBDSV2 SAVING "   CONSTANT HEAD" ON UNIT  31 AT TIME STEP  1, STRESS PERIOD  12
 UBDSV1 SAVING "FLOW RIGHT FACE " ON UNIT  31 AT TIME STEP  1, STRESS PERIOD  12
 UBDSV4 SAVING "           WELLS" ON UNIT  31 AT TIME STEP  1, STRESS PERIOD  12

 SAVING SATURATED THICKNESS AND FLOW TERMS ON UNIT  333 FOR MT3DMS
 BY THE LINK-MT3DMS PACKAGE V6.3 AT TIME STEP    1, STRESS PERIOD   12


 HEAD WILL BE SAVED ON UNIT   30 AT END OF TIME STEP   1, STRESS PERIOD   12
1
  VOLUMETRIC BUDGET FOR ENTIRE MODEL AT END OF TIME STEP  1 IN STRESS PERIOD  12
  ------------------------------------------------------------------------------

     CUMULATIVE VOLUMES      L**3       RATES FOR THIS TIME STEP      L**3/T
     ------------------                 ------------------------

           IN:                                      IN:
           ---                                      ---
             STORAGE =       1.2759E-14               STORAGE =       5.7997E-13
       CONSTANT HEAD =           0.0000         CONSTANT HEAD =           0.0000
               WELLS =       2.4000E-02                 WELLS =           1.0000

            TOTAL IN =       2.4000E-02              TOTAL IN =           1.0000

          OUT:                                     OUT:
          ----                                     ----
             STORAGE =       1.3315E-14               STORAGE =       6.0521E-13
       CONSTANT HEAD =       2.4000E-02         CONSTANT HEAD =           1.0000
               WELLS =           0.0000                 WELLS =           0.0000

           TOTAL OUT =       2.4000E-02             TOTAL OUT =           1.0000

            IN - OUT =           0.0000              IN - OUT =           0.0000

 PERCENT DISCREPANCY =           0.00     PERCENT DISCREPANCY =           0.00






          TIME SUMMARY AT END OF TIME STEP   1 IN STRESS PERIOD   12
                    SECONDS     MINUTES      HOURS       DAYS        YEARS
                    -----------------------------------------------------------
   TIME STEP LENGTH  172.80      2.8800     4.80000E-02 2.00000E-03 5.47570E-06
 STRESS PERIOD TIME  172.80      2.8800     4.80000E-02 2.00000E-03 5.47570E-06
         TOTAL TIME  2073.6      34.560     0.57600     2.40000E-02 6.57084E-05
1
1
                            STRESS PERIOD NO.   13, LENGTH =  0.2000000E-02
                            -----------------------------------------------

                              NUMBER OF TIME STEPS =     1

                               MULTIPLIER FOR DELT =     1.000

                            INITIAL TIME STEP SIZE =  0.2000000E-02

 WELL NO.  LAYER   ROW   COL   STRESS RATE         
 --------------------------------------------------
      1      1      1      1       1.000    

      1 WELL
 
 SOLVING FOR HEAD 

 OUTPUT CONTROL FOR STRESS PERIOD   13   TIME STEP   1
    SAVE HEAD FOR ALL LAYERS
    SAVE BUDGET
 UBDSV1 SAVING "         STORAGE" ON UNIT  31 AT TIME STEP  1, STRESS PERIOD  13
 UBDSV2 SAVING "   CONSTANT HEAD" ON UNIT  31 AT TIME STEP  1, STRESS PERIOD  13
 UBDSV1 SAVING "FLOW RIGHT FACE " ON UNIT  31 AT TIME STEP  1, STRESS PERIOD  13
 UBDSV4 SAVING "           WELLS" ON UNIT  31 AT TIME STEP  1, STRESS PERIOD  13

 SAVING SATURATED THICKNESS AND FLOW TERMS ON UNIT  333 FOR MT3DMS
 BY THE LINK-MT3DMS PACKAGE V6.3 AT TIME STEP    1, STRESS PERIOD   13


 HEAD WILL BE SAVED ON UNIT   30 AT END OF TIME STEP   1, STRESS PERIOD   13
1
  VOLUMETRIC BUDGET FOR ENTIRE MODEL AT END OF TIME STEP  1 IN STRESS PERIOD  13
  ------------------------------------------------------------------------------

     CUMULATIVE VOLUMES      L**3       RATES FOR THIS TIME STEP      L**3/T
     ------------------                 ------------------------

           IN:                                      IN:
           ---                                      ---
             STORAGE =       1.3919E-14               STORAGE =       5.7997E-13
       CONSTANT HEAD =           0.0000         CONSTANT HEAD =           0.0000
               WELLS =       2.6000E-02                 WELLS =           1.0000

            TOTAL IN =       2.6000E-02              TOTAL IN =           1.0000

          OUT:                                     OUT:
          ----                                     ----
             STORAGE =       1.4525E-14               STORAGE =       6.0521E-13
       CONSTANT HEAD =       2.6000E-02         CONSTANT HEAD =           1.0000
               WELLS =           0.0000                 WELLS =           0.0000

           TOTAL OUT =       2.6000E-02             TOTAL OUT =           1.0000

            IN - OUT =           0.0000              IN - OUT =           0.0000

 PERCENT DISCREPANCY =           0.00     PERCENT DISCREPANCY =           0.00






          TIME SUMMARY AT END OF TIME STEP   1 IN STRESS PERIOD   13
                    SECONDS     MINUTES      HOURS       DAYS        YEARS
                    -----------------------------------------------------------
   TIME STEP LENGTH  172.80      2.8800     4.80000E-02 2.00000E-03 5.47570E-06
 STRESS PERIOD TIME  172.80      2.8800     4.80000E-02 2.00000E-03 5.47570E-06
         TOTAL TIME  2246.4      37.440     0.62400     2.60000E-02 7.11841E-05
1
1
                            STRESS PERIOD NO.   14, LENGTH =  0.2000000E-02
                            -----------------------------------------------

                              NUMBER OF TIME STEPS =     1

                               MULTIPLIER FOR DELT =     1.000

                            INITIAL TIME STEP SIZE =  0.2000000E-02

 WELL NO.  LAYER   ROW   COL   STRESS RATE         
 --------------------------------------------------
      1      1      1      1       1.000    

      1 WELL
 
 SOLVING FOR HEAD 

 OUTPUT CONTROL FOR STRESS PERIOD   14   TIME STEP   1
    SAVE HEAD FOR ALL LAYERS
    SAVE BUDGET
 UBDSV1 SAVING "         STORAGE" ON UNIT  31 AT TIME STEP  1, STRESS PERIOD  14
 UBDSV2 SAVING "   CONSTANT HEAD" ON UNIT  31 AT TIME STEP  1, STRESS PERIOD  14
 UBDSV1 SAVING "FLOW RIGHT FACE " ON UNIT  31 AT TIME STEP  1, STRESS PERIOD  14
 UBDSV4 SAVING "           WELLS" ON UNIT  31 AT TIME STEP  1, STRESS PERIOD  14

 SAVING SATURATED THICKNESS AND FLOW TERMS ON UNIT  333 FOR MT3DMS
 BY THE LINK-MT3DMS PACKAGE V6.3 AT TIME STEP    1, STRESS PERIOD   14


 HEAD WILL BE SAVED ON UNIT   30 AT END OF TIME STEP   1, STRESS PERIOD   14
1
  VOLUMETRIC BUDGET FOR ENTIRE MODEL AT END OF TIME STEP  1 IN STRESS PERIOD  14
  ------------------------------------------------------------------------------

     CUMULATIVE VOLUMES      L**3       RATES FOR THIS TIME STEP      L**3/T
     ------------------                 ------------------------

           IN:                                      IN:
           ---                                      ---
             STORAGE =       1.5079E-14               STORAGE =       5.7997E-13
       CONSTANT HEAD =           0.0000         CONSTANT HEAD =           0.0000
               WELLS =       2.8000E-02                 WELLS =           1.0000

            TOTAL IN =       2.8000E-02              TOTAL IN =           1.0000

          OUT:                                     OUT:
          ----                                     ----
             STORAGE =       1.5736E-14               STORAGE =       6.0521E-13
       CONSTANT HEAD =       2.8000E-02         CONSTANT HEAD =           1.0000
               WELLS =           0.0000                 WELLS =           0.0000

           TOTAL OUT =       2.8000E-02             TOTAL OUT =           1.0000

            IN - OUT =           0.0000              IN - OUT =           0.0000

 PERCENT DISCREPANCY =           0.00     PERCENT DISCREPANCY =           0.00






          TIME SUMMARY AT END OF TIME STEP   1 IN STRESS PERIOD   14
                    SECONDS     MINUTES      HOURS       DAYS        YEARS
                    -----------------------------------------------------------
   TIME STEP LENGTH  172.80      2.8800     4.80000E-02 2.00000E-03 5.47570E-06
 STRESS PERIOD TIME  172.80      2.8800     4.80000E-02 2.00000E-03 5.47570E-06
         TOTAL TIME  2419.2      40.320     0.67200     2.80000E-02 7.66598E-05
1
1
                            STRESS PERIOD NO.   15, LENGTH =  0.2000000E-02
                            -----------------------------------------------

                              NUMBER OF TIME STEPS =     1

                               MULTIPLIER FOR DELT =     1.000

                            INITIAL TIME STEP SIZE =  0.2000000E-02

 WELL NO.  LAYER   ROW   COL   STRESS RATE         
 --------------------------------------------------
      1      1      1      1       1.000    

      1 WELL
 
 SOLVING FOR HEAD 

 OUTPUT CONTROL FOR STRESS PERIOD   15   TIME STEP   1
    SAVE HEAD FOR ALL LAYERS
    SAVE BUDGET
 UBDSV1 SAVING "         STORAGE" ON UNIT  31 AT TIME STEP  1, STRESS PERIOD  15
 UBDSV2 SAVING "   CONSTANT HEAD" ON UNIT  31 AT TIME STEP  1, STRESS PERIOD  15
 UBDSV1 SAVING "FLOW RIGHT FACE " ON UNIT  31 AT TIME STEP  1, STRESS PERIOD  15
 UBDSV4 SAVING "           WELLS" ON UNIT  31 AT TIME STEP  1, STRESS PERIOD  15

 SAVING SATURATED THICKNESS AND FLOW TERMS ON UNIT  333 FOR MT3DMS
 BY THE LINK-MT3DMS PACKAGE V6.3 AT TIME STEP    1, STRESS PERIOD   15


 HEAD WILL BE SAVED ON UNIT   30 AT END OF TIME STEP   1, STRESS PERIOD   15
1
  VOLUMETRIC BUDGET FOR ENTIRE MODEL AT END OF TIME STEP  1 IN STRESS PERIOD  15
  ------------------------------------------------------------------------------

     CUMULATIVE VOLUMES      L**3       RATES FOR THIS TIME STEP      L**3/T
     ------------------                 ------------------------

           IN:                                      IN:
           ---                                      ---
             STORAGE =       1.6239E-14               STORAGE =       5.7997E-13
       CONSTANT HEAD =           0.0000         CONSTANT HEAD =           0.0000
               WELLS =       3.0000E-02                 WELLS =           1.0000

            TOTAL IN =       3.0000E-02              TOTAL IN =           1.0000

          OUT:                                     OUT:
          ----                                     ----
             STORAGE =       1.6946E-14               STORAGE =       6.0521E-13
       CONSTANT HEAD =       3.0000E-02         CONSTANT HEAD =           1.0000
               WELLS =           0.0000                 WELLS =           0.0000

           TOTAL OUT =       3.0000E-02             TOTAL OUT =           1.0000

            IN - OUT =           0.0000              IN - OUT =           0.0000

 PERCENT DISCREPANCY =           0.00     PERCENT DISCREPANCY =           0.00






          TIME SUMMARY AT END OF TIME STEP   1 IN STRESS PERIOD   15
                    SECONDS     MINUTES      HOURS       DAYS        YEARS
                    -----------------------------------------------------------
   TIME STEP LENGTH  172.80      2.8800     4.80000E-02 2.00000E-03 5.47570E-06
 STRESS PERIOD TIME  172.80      2.8800     4.80000E-02 2.00000E-03 5.47570E-06
         TOTAL TIME  2592.0      43.200     0.72000     3.00000E-02 8.21355E-05
1
1
                            STRESS PERIOD NO.   16, LENGTH =  0.2000000E-02
                            -----------------------------------------------

                              NUMBER OF TIME STEPS =     1

                               MULTIPLIER FOR DELT =     1.000

                            INITIAL TIME STEP SIZE =  0.2000000E-02

 WELL NO.  LAYER   ROW   COL   STRESS RATE         
 --------------------------------------------------
      1      1      1      1       1.000    

      1 WELL
 
 SOLVING FOR HEAD 

 OUTPUT CONTROL FOR STRESS PERIOD   16   TIME STEP   1
    SAVE HEAD FOR ALL LAYERS
    SAVE BUDGET
 UBDSV1 SAVING "         STORAGE" ON UNIT  31 AT TIME STEP  1, STRESS PERIOD  16
 UBDSV2 SAVING "   CONSTANT HEAD" ON UNIT  31 AT TIME STEP  1, STRESS PERIOD  16
 UBDSV1 SAVING "FLOW RIGHT FACE " ON UNIT  31 AT TIME STEP  1, STRESS PERIOD  16
 UBDSV4 SAVING "           WELLS" ON UNIT  31 AT TIME STEP  1, STRESS PERIOD  16

 SAVING SATURATED THICKNESS AND FLOW TERMS ON UNIT  333 FOR MT3DMS
 BY THE LINK-MT3DMS PACKAGE V6.3 AT TIME STEP    1, STRESS PERIOD   16


 HEAD WILL BE SAVED ON UNIT   30 AT END OF TIME STEP   1, STRESS PERIOD   16
1
  VOLUMETRIC BUDGET FOR ENTIRE MODEL AT END OF TIME STEP  1 IN STRESS PERIOD  16
  ------------------------------------------------------------------------------

     CUMULATIVE VOLUMES      L**3       RATES FOR THIS TIME STEP      L**3/T
     ------------------                 ------------------------

           IN:                                      IN:
           ---                                      ---
             STORAGE =       1.7399E-14               STORAGE =       5.7997E-13
       CONSTANT HEAD =           0.0000         CONSTANT HEAD =           0.0000
               WELLS =       3.2000E-02                 WELLS =           1.0000

            TOTAL IN =       3.2000E-02              TOTAL IN =           1.0000

          OUT:                                     OUT:
          ----                                     ----
             STORAGE =       1.8156E-14               STORAGE =       6.0521E-13
       CONSTANT HEAD =       3.2000E-02         CONSTANT HEAD =           1.0000
               WELLS =           0.0000                 WELLS =           0.0000

           TOTAL OUT =       3.2000E-02             TOTAL OUT =           1.0000

            IN - OUT =           0.0000              IN - OUT =           0.0000

 PERCENT DISCREPANCY =           0.00     PERCENT DISCREPANCY =           0.00






          TIME SUMMARY AT END OF TIME STEP   1 IN STRESS PERIOD   16
                    SECONDS     MINUTES      HOURS       DAYS        YEARS
                    -----------------------------------------------------------
   TIME STEP LENGTH  172.80      2.8800     4.80000E-02 2.00000E-03 5.47570E-06
 STRESS PERIOD TIME  172.80      2.8800     4.80000E-02 2.00000E-03 5.47570E-06
         TOTAL TIME  2764.8      46.080     0.76800     3.20000E-02 8.76112E-05
1
1
                            STRESS PERIOD NO.   17, LENGTH =  0.2000000E-02
                            -----------------------------------------------

                              NUMBER OF TIME STEPS =     1

                               MULTIPLIER FOR DELT =     1.000

                            INITIAL TIME STEP SIZE =  0.2000000E-02

 WELL NO.  LAYER   ROW   COL   STRESS RATE         
 --------------------------------------------------
      1      1      1      1       1.000    

      1 WELL
 
 SOLVING FOR HEAD 

 OUTPUT CONTROL FOR STRESS PERIOD   17   TIME STEP   1
    SAVE HEAD FOR ALL LAYERS
    SAVE BUDGET
 UBDSV1 SAVING "         STORAGE" ON UNIT  31 AT TIME STEP  1, STRESS PERIOD  17
 UBDSV2 SAVING "   CONSTANT HEAD" ON UNIT  31 AT TIME STEP  1, STRESS PERIOD  17
 UBDSV1 SAVING "FLOW RIGHT FACE " ON UNIT  31 AT TIME STEP  1, STRESS PERIOD  17
 UBDSV4 SAVING "           WELLS" ON UNIT  31 AT TIME STEP  1, STRESS PERIOD  17

 SAVING SATURATED THICKNESS AND FLOW TERMS ON UNIT  333 FOR MT3DMS
 BY THE LINK-MT3DMS PACKAGE V6.3 AT TIME STEP    1, STRESS PERIOD   17


 HEAD WILL BE SAVED ON UNIT   30 AT END OF TIME STEP   1, STRESS PERIOD   17
1
  VOLUMETRIC BUDGET FOR ENTIRE MODEL AT END OF TIME STEP  1 IN STRESS PERIOD  17
  ------------------------------------------------------------------------------

     CUMULATIVE VOLUMES      L**3       RATES FOR THIS TIME STEP      L**3/T
     ------------------                 ------------------------

           IN:                                      IN:
           ---                                      ---
             STORAGE =       1.8559E-14               STORAGE =       5.7997E-13
       CONSTANT HEAD =           0.0000         CONSTANT HEAD =           0.0000
               WELLS =       3.4000E-02                 WELLS =           1.0000

            TOTAL IN =       3.4000E-02              TOTAL IN =           1.0000

          OUT:                                     OUT:
          ----                                     ----
             STORAGE =       1.9367E-14               STORAGE =       6.0521E-13
       CONSTANT HEAD =       3.4000E-02         CONSTANT HEAD =           1.0000
               WELLS =           0.0000                 WELLS =           0.0000

           TOTAL OUT =       3.4000E-02             TOTAL OUT =           1.0000

            IN - OUT =           0.0000              IN - OUT =           0.0000

 PERCENT DISCREPANCY =           0.00     PERCENT DISCREPANCY =           0.00






          TIME SUMMARY AT END OF TIME STEP   1 IN STRESS PERIOD   17
                    SECONDS     MINUTES      HOURS       DAYS        YEARS
                    -----------------------------------------------------------
   TIME STEP LENGTH  172.80      2.8800     4.80000E-02 2.00000E-03 5.47570E-06
 STRESS PERIOD TIME  172.80      2.8800     4.80000E-02 2.00000E-03 5.47570E-06
         TOTAL TIME  2937.6      48.960     0.81600     3.40000E-02 9.30869E-05
1
1
                            STRESS PERIOD NO.   18, LENGTH =  0.2000000E-02
                            -----------------------------------------------

                              NUMBER OF TIME STEPS =     1

                               MULTIPLIER FOR DELT =     1.000

                            INITIAL TIME STEP SIZE =  0.2000000E-02

 WELL NO.  LAYER   ROW   COL   STRESS RATE         
 --------------------------------------------------
      1      1      1      1       1.000    

      1 WELL
 
 SOLVING FOR HEAD 

 OUTPUT CONTROL FOR STRESS PERIOD   18   TIME STEP   1
    SAVE HEAD FOR ALL LAYERS
    SAVE BUDGET
 UBDSV1 SAVING "         STORAGE" ON UNIT  31 AT TIME STEP  1, STRESS PERIOD  18
 UBDSV2 SAVING "   CONSTANT HEAD" ON UNIT  31 AT TIME STEP  1, STRESS PERIOD  18
 UBDSV1 SAVING "FLOW RIGHT FACE " ON UNIT  31 AT TIME STEP  1, STRESS PERIOD  18
 UBDSV4 SAVING "           WELLS" ON UNIT  31 AT TIME STEP  1, STRESS PERIOD  18

 SAVING SATURATED THICKNESS AND FLOW TERMS ON UNIT  333 FOR MT3DMS
 BY THE LINK-MT3DMS PACKAGE V6.3 AT TIME STEP    1, STRESS PERIOD   18


 HEAD WILL BE SAVED ON UNIT   30 AT END OF TIME STEP   1, STRESS PERIOD   18
1
  VOLUMETRIC BUDGET FOR ENTIRE MODEL AT END OF TIME STEP  1 IN STRESS PERIOD  18
  ------------------------------------------------------------------------------

     CUMULATIVE VOLUMES      L**3       RATES FOR THIS TIME STEP      L**3/T
     ------------------                 ------------------------

           IN:                                      IN:
           ---                                      ---
             STORAGE =       1.9719E-14               STORAGE =       5.7997E-13
       CONSTANT HEAD =           0.0000         CONSTANT HEAD =           0.0000
               WELLS =       3.6000E-02                 WELLS =           1.0000

            TOTAL IN =       3.6000E-02              TOTAL IN =           1.0000

          OUT:                                     OUT:
          ----                                     ----
             STORAGE =       2.0577E-14               STORAGE =       6.0521E-13
       CONSTANT HEAD =       3.6000E-02         CONSTANT HEAD =           1.0000
               WELLS =           0.0000                 WELLS =           0.0000

           TOTAL OUT =       3.6000E-02             TOTAL OUT =           1.0000

            IN - OUT =           0.0000              IN - OUT =           0.0000

 PERCENT DISCREPANCY =           0.00     PERCENT DISCREPANCY =           0.00






          TIME SUMMARY AT END OF TIME STEP   1 IN STRESS PERIOD   18
                    SECONDS     MINUTES      HOURS       DAYS        YEARS
                    -----------------------------------------------------------
   TIME STEP LENGTH  172.80      2.8800     4.80000E-02 2.00000E-03 5.47570E-06
 STRESS PERIOD TIME  172.80      2.8800     4.80000E-02 2.00000E-03 5.47570E-06
         TOTAL TIME  3110.4      51.840     0.86400     3.60000E-02 9.85626E-05
1
1
                            STRESS PERIOD NO.   19, LENGTH =  0.2000000E-02
                            -----------------------------------------------

                              NUMBER OF TIME STEPS =     1

                               MULTIPLIER FOR DELT =     1.000

                            INITIAL TIME STEP SIZE =  0.2000000E-02

 WELL NO.  LAYER   ROW   COL   STRESS RATE         
 --------------------------------------------------
      1      1      1      1       1.000    

      1 WELL
 
 SOLVING FOR HEAD 

 OUTPUT CONTROL FOR STRESS PERIOD   19   TIME STEP   1
    SAVE HEAD FOR ALL LAYERS
    SAVE BUDGET
 UBDSV1 SAVING "         STORAGE" ON UNIT  31 AT TIME STEP  1, STRESS PERIOD  19
 UBDSV2 SAVING "   CONSTANT HEAD" ON UNIT  31 AT TIME STEP  1, STRESS PERIOD  19
 UBDSV1 SAVING "FLOW RIGHT FACE " ON UNIT  31 AT TIME STEP  1, STRESS PERIOD  19
 UBDSV4 SAVING "           WELLS" ON UNIT  31 AT TIME STEP  1, STRESS PERIOD  19

 SAVING SATURATED THICKNESS AND FLOW TERMS ON UNIT  333 FOR MT3DMS
 BY THE LINK-MT3DMS PACKAGE V6.3 AT TIME STEP    1, STRESS PERIOD   19


 HEAD WILL BE SAVED ON UNIT   30 AT END OF TIME STEP   1, STRESS PERIOD   19
1
  VOLUMETRIC BUDGET FOR ENTIRE MODEL AT END OF TIME STEP  1 IN STRESS PERIOD  19
  ------------------------------------------------------------------------------

     CUMULATIVE VOLUMES      L**3       RATES FOR THIS TIME STEP      L**3/T
     ------------------                 ------------------------

           IN:                                      IN:
           ---                                      ---
             STORAGE =       2.0879E-14               STORAGE =       5.7997E-13
       CONSTANT HEAD =           0.0000         CONSTANT HEAD =           0.0000
               WELLS =       3.8000E-02                 WELLS =           1.0000

            TOTAL IN =       3.8000E-02              TOTAL IN =           1.0000

          OUT:                                     OUT:
          ----                                     ----
             STORAGE =       2.1788E-14               STORAGE =       6.0521E-13
       CONSTANT HEAD =       3.8000E-02         CONSTANT HEAD =           1.0000
               WELLS =           0.0000                 WELLS =           0.0000

           TOTAL OUT =       3.8000E-02             TOTAL OUT =           1.0000

            IN - OUT =           0.0000              IN - OUT =           0.0000

 PERCENT DISCREPANCY =           0.00     PERCENT DISCREPANCY =           0.00






          TIME SUMMARY AT END OF TIME STEP   1 IN STRESS PERIOD   19
                    SECONDS     MINUTES      HOURS       DAYS        YEARS
                    -----------------------------------------------------------
   TIME STEP LENGTH  172.80      2.8800     4.80000E-02 2.00000E-03 5.47570E-06
 STRESS PERIOD TIME  172.80      2.8800     4.80000E-02 2.00000E-03 5.47570E-06
         TOTAL TIME  3283.2      54.720     0.91200     3.80000E-02 1.04038E-04
1
1
                            STRESS PERIOD NO.   20, LENGTH =  0.2000000E-02
                            -----------------------------------------------

                              NUMBER OF TIME STEPS =     1

                               MULTIPLIER FOR DELT =     1.000

                            INITIAL TIME STEP SIZE =  0.2000000E-02

 WELL NO.  LAYER   ROW   COL   STRESS RATE         
 --------------------------------------------------
      1      1      1      1       1.000    

      1 WELL
 
 SOLVING FOR HEAD 

 OUTPUT CONTROL FOR STRESS PERIOD   20   TIME STEP   1
    SAVE HEAD FOR ALL LAYERS
    SAVE BUDGET
 UBDSV1 SAVING "         STORAGE" ON UNIT  31 AT TIME STEP  1, STRESS PERIOD  20
 UBDSV2 SAVING "   CONSTANT HEAD" ON UNIT  31 AT TIME STEP  1, STRESS PERIOD  20
 UBDSV1 SAVING "FLOW RIGHT FACE " ON UNIT  31 AT TIME STEP  1, STRESS PERIOD  20
 UBDSV4 SAVING "           WELLS" ON UNIT  31 AT TIME STEP  1, STRESS PERIOD  20

 SAVING SATURATED THICKNESS AND FLOW TERMS ON UNIT  333 FOR MT3DMS
 BY THE LINK-MT3DMS PACKAGE V6.3 AT TIME STEP    1, STRESS PERIOD   20


 HEAD WILL BE SAVED ON UNIT   30 AT END OF TIME STEP   1, STRESS PERIOD   20
1
  VOLUMETRIC BUDGET FOR ENTIRE MODEL AT END OF TIME STEP  1 IN STRESS PERIOD  20
  ------------------------------------------------------------------------------

     CUMULATIVE VOLUMES      L**3       RATES FOR THIS TIME STEP      L**3/T
     ------------------                 ------------------------

           IN:                                      IN:
           ---                                      ---
             STORAGE =       2.2039E-14               STORAGE =       5.7997E-13
       CONSTANT HEAD =           0.0000         CONSTANT HEAD =           0.0000
               WELLS =       4.0000E-02                 WELLS =           1.0000

            TOTAL IN =       4.0000E-02              TOTAL IN =           1.0000

          OUT:                                     OUT:
          ----                                     ----
             STORAGE =       2.2998E-14               STORAGE =       6.0521E-13
       CONSTANT HEAD =       4.0000E-02         CONSTANT HEAD =           1.0000
               WELLS =           0.0000                 WELLS =           0.0000

           TOTAL OUT =       4.0000E-02             TOTAL OUT =           1.0000

            IN - OUT =           0.0000              IN - OUT =           0.0000

 PERCENT DISCREPANCY =           0.00     PERCENT DISCREPANCY =           0.00






          TIME SUMMARY AT END OF TIME STEP   1 IN STRESS PERIOD   20
                    SECONDS     MINUTES      HOURS       DAYS        YEARS
                    -----------------------------------------------------------
   TIME STEP LENGTH  172.80      2.8800     4.80000E-02 2.00000E-03 5.47570E-06
 STRESS PERIOD TIME  172.80      2.8800     4.80000E-02 2.00000E-03 5.47570E-06
         TOTAL TIME  3456.0      57.600     0.96000     4.00000E-02 1.09514E-04
1
1
                            STRESS PERIOD NO.   21, LENGTH =  0.2000000E-02
                            -----------------------------------------------

                              NUMBER OF TIME STEPS =     1

                               MULTIPLIER FOR DELT =     1.000

                            INITIAL TIME STEP SIZE =  0.2000000E-02

 WELL NO.  LAYER   ROW   COL   STRESS RATE         
 --------------------------------------------------
      1      1      1      1       1.000    

      1 WELL
 
 SOLVING FOR HEAD 

 OUTPUT CONTROL FOR STRESS PERIOD   21   TIME STEP   1
    SAVE HEAD FOR ALL LAYERS
    SAVE BUDGET
 UBDSV1 SAVING "         STORAGE" ON UNIT  31 AT TIME STEP  1, STRESS PERIOD  21
 UBDSV2 SAVING "   CONSTANT HEAD" ON UNIT  31 AT TIME STEP  1, STRESS PERIOD  21
 UBDSV1 SAVING "FLOW RIGHT FACE " ON UNIT  31 AT TIME STEP  1, STRESS PERIOD  21
 UBDSV4 SAVING "           WELLS" ON UNIT  31 AT TIME STEP  1, STRESS PERIOD  21

 SAVING SATURATED THICKNESS AND FLOW TERMS ON UNIT  333 FOR MT3DMS
 BY THE LINK-MT3DMS PACKAGE V6.3 AT TIME STEP    1, STRESS PERIOD   21


 HEAD WILL BE SAVED ON UNIT   30 AT END OF TIME STEP   1, STRESS PERIOD   21
1
  VOLUMETRIC BUDGET FOR ENTIRE MODEL AT END OF TIME STEP  1 IN STRESS PERIOD  21
  ------------------------------------------------------------------------------

     CUMULATIVE VOLUMES      L**3       RATES FOR THIS TIME STEP      L**3/T
     ------------------                 ------------------------

           IN:                                      IN:
           ---                                      ---
             STORAGE =       2.3199E-14               STORAGE =       5.7997E-13
       CONSTANT HEAD =           0.0000         CONSTANT HEAD =           0.0000
               WELLS =       4.2000E-02                 WELLS =           1.0000

            TOTAL IN =       4.2000E-02              TOTAL IN =           1.0000

          OUT:                                     OUT:
          ----                                     ----
             STORAGE =       2.4209E-14               STORAGE =       6.0521E-13
       CONSTANT HEAD =       4.2000E-02         CONSTANT HEAD =           1.0000
               WELLS =           0.0000                 WELLS =           0.0000

           TOTAL OUT =       4.2000E-02             TOTAL OUT =           1.0000

            IN - OUT =           0.0000              IN - OUT =           0.0000

 PERCENT DISCREPANCY =           0.00     PERCENT DISCREPANCY =           0.00






          TIME SUMMARY AT END OF TIME STEP   1 IN STRESS PERIOD   21
                    SECONDS     MINUTES      HOURS       DAYS        YEARS
                    -----------------------------------------------------------
   TIME STEP LENGTH  172.80      2.8800     4.80000E-02 2.00000E-03 5.47570E-06
 STRESS PERIOD TIME  172.80      2.8800     4.80000E-02 2.00000E-03 5.47570E-06
         TOTAL TIME  3628.8      60.480      1.0080     4.20000E-02 1.14990E-04
1
1
                            STRESS PERIOD NO.   22, LENGTH =  0.2000000E-02
                            -----------------------------------------------

                              NUMBER OF TIME STEPS =     1

                               MULTIPLIER FOR DELT =     1.000

                            INITIAL TIME STEP SIZE =  0.2000000E-02

 WELL NO.  LAYER   ROW   COL   STRESS RATE         
 --------------------------------------------------
      1      1      1      1       1.000    

      1 WELL
 
 SOLVING FOR HEAD 

 OUTPUT CONTROL FOR STRESS PERIOD   22   TIME STEP   1
    SAVE HEAD FOR ALL LAYERS
    SAVE BUDGET
 UBDSV1 SAVING "         STORAGE" ON UNIT  31 AT TIME STEP  1, STRESS PERIOD  22
 UBDSV2 SAVING "   CONSTANT HEAD" ON UNIT  31 AT TIME STEP  1, STRESS PERIOD  22
 UBDSV1 SAVING "FLOW RIGHT FACE " ON UNIT  31 AT TIME STEP  1, STRESS PERIOD  22
 UBDSV4 SAVING "           WELLS" ON UNIT  31 AT TIME STEP  1, STRESS PERIOD  22

 SAVING SATURATED THICKNESS AND FLOW TERMS ON UNIT  333 FOR MT3DMS
 BY THE LINK-MT3DMS PACKAGE V6.3 AT TIME STEP    1, STRESS PERIOD   22


 HEAD WILL BE SAVED ON UNIT   30 AT END OF TIME STEP   1, STRESS PERIOD   22
1
  VOLUMETRIC BUDGET FOR ENTIRE MODEL AT END OF TIME STEP  1 IN STRESS PERIOD  22
  ------------------------------------------------------------------------------

     CUMULATIVE VOLUMES      L**3       RATES FOR THIS TIME STEP      L**3/T
     ------------------                 ------------------------

           IN:                                      IN:
           ---                                      ---
             STORAGE =       2.4359E-14               STORAGE =       5.7997E-13
       CONSTANT HEAD =           0.0000         CONSTANT HEAD =           0.0000
               WELLS =       4.4000E-02                 WELLS =           1.0000

            TOTAL IN =       4.4000E-02              TOTAL IN =           1.0000

          OUT:                                     OUT:
          ----                                     ----
             STORAGE =       2.5419E-14               STORAGE =       6.0521E-13
       CONSTANT HEAD =       4.4000E-02         CONSTANT HEAD =           1.0000
               WELLS =           0.0000                 WELLS =           0.0000

           TOTAL OUT =       4.4000E-02             TOTAL OUT =           1.0000

            IN - OUT =           0.0000              IN - OUT =           0.0000

 PERCENT DISCREPANCY =           0.00     PERCENT DISCREPANCY =           0.00






          TIME SUMMARY AT END OF TIME STEP   1 IN STRESS PERIOD   22
                    SECONDS     MINUTES      HOURS       DAYS        YEARS
                    -----------------------------------------------------------
   TIME STEP LENGTH  172.80      2.8800     4.80000E-02 2.00000E-03 5.47570E-06
 STRESS PERIOD TIME  172.80      2.8800     4.80000E-02 2.00000E-03 5.47570E-06
         TOTAL TIME  3801.6      63.360      1.0560     4.40000E-02 1.20465E-04
1
1
                            STRESS PERIOD NO.   23, LENGTH =  0.2000000E-02
                            -----------------------------------------------

                              NUMBER OF TIME STEPS =     1

                               MULTIPLIER FOR DELT =     1.000

                            INITIAL TIME STEP SIZE =  0.2000000E-02

 WELL NO.  LAYER   ROW   COL   STRESS RATE         
 --------------------------------------------------
      1      1      1      1       1.000    

      1 WELL
 
 SOLVING FOR HEAD 

 OUTPUT CONTROL FOR STRESS PERIOD   23   TIME STEP   1
    SAVE HEAD FOR ALL LAYERS
    SAVE BUDGET
 UBDSV1 SAVING "         STORAGE" ON UNIT  31 AT TIME STEP  1, STRESS PERIOD  23
 UBDSV2 SAVING "   CONSTANT HEAD" ON UNIT  31 AT TIME STEP  1, STRESS PERIOD  23
 UBDSV1 SAVING "FLOW RIGHT FACE " ON UNIT  31 AT TIME STEP  1, STRESS PERIOD  23
 UBDSV4 SAVING "           WELLS" ON UNIT  31 AT TIME STEP  1, STRESS PERIOD  23

 SAVING SATURATED THICKNESS AND FLOW TERMS ON UNIT  333 FOR MT3DMS
 BY THE LINK-MT3DMS PACKAGE V6.3 AT TIME STEP    1, STRESS PERIOD   23


 HEAD WILL BE SAVED ON UNIT   30 AT END OF TIME STEP   1, STRESS PERIOD   23
1
  VOLUMETRIC BUDGET FOR ENTIRE MODEL AT END OF TIME STEP  1 IN STRESS PERIOD  23
  ------------------------------------------------------------------------------

     CUMULATIVE VOLUMES      L**3       RATES FOR THIS TIME STEP      L**3/T
     ------------------                 ------------------------

           IN:                                      IN:
           ---                                      ---
             STORAGE =       2.5519E-14               STORAGE =       5.7997E-13
       CONSTANT HEAD =           0.0000         CONSTANT HEAD =           0.0000
               WELLS =       4.6000E-02                 WELLS =           1.0000

            TOTAL IN =       4.6000E-02              TOTAL IN =           1.0000

          OUT:                                     OUT:
          ----                                     ----
             STORAGE =       2.6629E-14               STORAGE =       6.0521E-13
       CONSTANT HEAD =       4.6000E-02         CONSTANT HEAD =           1.0000
               WELLS =           0.0000                 WELLS =           0.0000

           TOTAL OUT =       4.6000E-02             TOTAL OUT =           1.0000

            IN - OUT =           0.0000              IN - OUT =           0.0000

 PERCENT DISCREPANCY =           0.00     PERCENT DISCREPANCY =           0.00






          TIME SUMMARY AT END OF TIME STEP   1 IN STRESS PERIOD   23
                    SECONDS     MINUTES      HOURS       DAYS        YEARS
                    -----------------------------------------------------------
   TIME STEP LENGTH  172.80      2.8800     4.80000E-02 2.00000E-03 5.47570E-06
 STRESS PERIOD TIME  172.80      2.8800     4.80000E-02 2.00000E-03 5.47570E-06
         TOTAL TIME  3974.4      66.240      1.1040     4.60000E-02 1.25941E-04
1
1
                            STRESS PERIOD NO.   24, LENGTH =  0.2000000E-02
                            -----------------------------------------------

                              NUMBER OF TIME STEPS =     1

                               MULTIPLIER FOR DELT =     1.000

                            INITIAL TIME STEP SIZE =  0.2000000E-02

 WELL NO.  LAYER   ROW   COL   STRESS RATE         
 --------------------------------------------------
      1      1      1      1       1.000    

      1 WELL
 
 SOLVING FOR HEAD 

 OUTPUT CONTROL FOR STRESS PERIOD   24   TIME STEP   1
    SAVE HEAD FOR ALL LAYERS
    SAVE BUDGET
 UBDSV1 SAVING "         STORAGE" ON UNIT  31 AT TIME STEP  1, STRESS PERIOD  24
 UBDSV2 SAVING "   CONSTANT HEAD" ON UNIT  31 AT TIME STEP  1, STRESS PERIOD  24
 UBDSV1 SAVING "FLOW RIGHT FACE " ON UNIT  31 AT TIME STEP  1, STRESS PERIOD  24
 UBDSV4 SAVING "           WELLS" ON UNIT  31 AT TIME STEP  1, STRESS PERIOD  24

 SAVING SATURATED THICKNESS AND FLOW TERMS ON UNIT  333 FOR MT3DMS
 BY THE LINK-MT3DMS PACKAGE V6.3 AT TIME STEP    1, STRESS PERIOD   24


 HEAD WILL BE SAVED ON UNIT   30 AT END OF TIME STEP   1, STRESS PERIOD   24
1
  VOLUMETRIC BUDGET FOR ENTIRE MODEL AT END OF TIME STEP  1 IN STRESS PERIOD  24
  ------------------------------------------------------------------------------

     CUMULATIVE VOLUMES      L**3       RATES FOR THIS TIME STEP      L**3/T
     ------------------                 ------------------------

           IN:                                      IN:
           ---                                      ---
             STORAGE =       2.6679E-14               STORAGE =       5.7997E-13
       CONSTANT HEAD =           0.0000         CONSTANT HEAD =           0.0000
               WELLS =       4.8000E-02                 WELLS =           1.0000

            TOTAL IN =       4.8000E-02              TOTAL IN =           1.0000

          OUT:                                     OUT:
          ----                                     ----
             STORAGE =       2.7840E-14               STORAGE =       6.0521E-13
       CONSTANT HEAD =       4.8000E-02         CONSTANT HEAD =           1.0000
               WELLS =           0.0000                 WELLS =           0.0000

           TOTAL OUT =       4.8000E-02             TOTAL OUT =           1.0000

            IN - OUT =           0.0000              IN - OUT =           0.0000

 PERCENT DISCREPANCY =           0.00     PERCENT DISCREPANCY =           0.00






          TIME SUMMARY AT END OF TIME STEP   1 IN STRESS PERIOD   24
                    SECONDS     MINUTES      HOURS       DAYS        YEARS
                    -----------------------------------------------------------
   TIME STEP LENGTH  172.80      2.8800     4.80000E-02 2.00000E-03 5.47570E-06
 STRESS PERIOD TIME  172.80      2.8800     4.80000E-02 2.00000E-03 5.47570E-06
         TOTAL TIME  4147.2      69.120      1.1520     4.80000E-02 1.31417E-04
1
1
                            STRESS PERIOD NO.   25, LENGTH =  0.2000000E-02
                            -----------------------------------------------

                              NUMBER OF TIME STEPS =     1

                               MULTIPLIER FOR DELT =     1.000

                            INITIAL TIME STEP SIZE =  0.2000000E-02

 WELL NO.  LAYER   ROW   COL   STRESS RATE         
 --------------------------------------------------
      1      1      1      1       1.000    

      1 WELL
 
 SOLVING FOR HEAD 

 OUTPUT CONTROL FOR STRESS PERIOD   25   TIME STEP   1
    SAVE HEAD FOR ALL LAYERS
    SAVE BUDGET
 UBDSV1 SAVING "         STORAGE" ON UNIT  31 AT TIME STEP  1, STRESS PERIOD  25
 UBDSV2 SAVING "   CONSTANT HEAD" ON UNIT  31 AT TIME STEP  1, STRESS PERIOD  25
 UBDSV1 SAVING "FLOW RIGHT FACE " ON UNIT  31 AT TIME STEP  1, STRESS PERIOD  25
 UBDSV4 SAVING "           WELLS" ON UNIT  31 AT TIME STEP  1, STRESS PERIOD  25

 SAVING SATURATED THICKNESS AND FLOW TERMS ON UNIT  333 FOR MT3DMS
 BY THE LINK-MT3DMS PACKAGE V6.3 AT TIME STEP    1, STRESS PERIOD   25


 HEAD WILL BE SAVED ON UNIT   30 AT END OF TIME STEP   1, STRESS PERIOD   25
1
  VOLUMETRIC BUDGET FOR ENTIRE MODEL AT END OF TIME STEP  1 IN STRESS PERIOD  25
  ------------------------------------------------------------------------------

     CUMULATIVE VOLUMES      L**3       RATES FOR THIS TIME STEP      L**3/T
     ------------------                 ------------------------

           IN:                                      IN:
           ---                                      ---
             STORAGE =       2.7838E-14               STORAGE =       5.7997E-13
       CONSTANT HEAD =           0.0000         CONSTANT HEAD =           0.0000
               WELLS =       5.0000E-02                 WELLS =           1.0000

            TOTAL IN =       5.0000E-02              TOTAL IN =           1.0000

          OUT:                                     OUT:
          ----                                     ----
             STORAGE =       2.9050E-14               STORAGE =       6.0521E-13
       CONSTANT HEAD =       5.0000E-02         CONSTANT HEAD =           1.0000
               WELLS =           0.0000                 WELLS =           0.0000

           TOTAL OUT =       5.0000E-02             TOTAL OUT =           1.0000

            IN - OUT =           0.0000              IN - OUT =           0.0000

 PERCENT DISCREPANCY =           0.00     PERCENT DISCREPANCY =           0.00






          TIME SUMMARY AT END OF TIME STEP   1 IN STRESS PERIOD   25
                    SECONDS     MINUTES      HOURS       DAYS        YEARS
                    -----------------------------------------------------------
   TIME STEP LENGTH  172.80      2.8800     4.80000E-02 2.00000E-03 5.47570E-06
 STRESS PERIOD TIME  172.80      2.8800     4.80000E-02 2.00000E-03 5.47570E-06
         TOTAL TIME  4320.0      72.000      1.2000     5.00000E-02 1.36893E-04
1
1
                            STRESS PERIOD NO.   26, LENGTH =  0.2000000E-02
                            -----------------------------------------------

                              NUMBER OF TIME STEPS =     1

                               MULTIPLIER FOR DELT =     1.000

                            INITIAL TIME STEP SIZE =  0.2000000E-02

 WELL NO.  LAYER   ROW   COL   STRESS RATE         
 --------------------------------------------------
      1      1      1      1       1.000    

      1 WELL
 
 SOLVING FOR HEAD 

 OUTPUT CONTROL FOR STRESS PERIOD   26   TIME STEP   1
    SAVE HEAD FOR ALL LAYERS
    SAVE BUDGET
 UBDSV1 SAVING "         STORAGE" ON UNIT  31 AT TIME STEP  1, STRESS PERIOD  26
 UBDSV2 SAVING "   CONSTANT HEAD" ON UNIT  31 AT TIME STEP  1, STRESS PERIOD  26
 UBDSV1 SAVING "FLOW RIGHT FACE " ON UNIT  31 AT TIME STEP  1, STRESS PERIOD  26
 UBDSV4 SAVING "           WELLS" ON UNIT  31 AT TIME STEP  1, STRESS PERIOD  26

 SAVING SATURATED THICKNESS AND FLOW TERMS ON UNIT  333 FOR MT3DMS
 BY THE LINK-MT3DMS PACKAGE V6.3 AT TIME STEP    1, STRESS PERIOD   26


 HEAD WILL BE SAVED ON UNIT   30 AT END OF TIME STEP   1, STRESS PERIOD   26
1
  VOLUMETRIC BUDGET FOR ENTIRE MODEL AT END OF TIME STEP  1 IN STRESS PERIOD  26
  ------------------------------------------------------------------------------

     CUMULATIVE VOLUMES      L**3       RATES FOR THIS TIME STEP      L**3/T
     ------------------                 ------------------------

           IN:                                      IN:
           ---                                      ---
             STORAGE =       2.8998E-14               STORAGE =       5.7997E-13
       CONSTANT HEAD =           0.0000         CONSTANT HEAD =           0.0000
               WELLS =       5.2000E-02                 WELLS =           1.0000

            TOTAL IN =       5.2000E-02              TOTAL IN =           1.0000

          OUT:                                     OUT:
          ----                                     ----
             STORAGE =       3.0261E-14               STORAGE =       6.0521E-13
       CONSTANT HEAD =       5.2000E-02         CONSTANT HEAD =           1.0000
               WELLS =           0.0000                 WELLS =           0.0000

           TOTAL OUT =       5.2000E-02             TOTAL OUT =           1.0000

            IN - OUT =           0.0000              IN - OUT =           0.0000

 PERCENT DISCREPANCY =           0.00     PERCENT DISCREPANCY =           0.00






          TIME SUMMARY AT END OF TIME STEP   1 IN STRESS PERIOD   26
                    SECONDS     MINUTES      HOURS       DAYS        YEARS
                    -----------------------------------------------------------
   TIME STEP LENGTH  172.80      2.8800     4.80000E-02 2.00000E-03 5.47570E-06
 STRESS PERIOD TIME  172.80      2.8800     4.80000E-02 2.00000E-03 5.47570E-06
         TOTAL TIME  4492.8      74.880      1.2480     5.20000E-02 1.42368E-04
1
1
                            STRESS PERIOD NO.   27, LENGTH =  0.2000000E-02
                            -----------------------------------------------

                              NUMBER OF TIME STEPS =     1

                               MULTIPLIER FOR DELT =     1.000

                            INITIAL TIME STEP SIZE =  0.2000000E-02

 WELL NO.  LAYER   ROW   COL   STRESS RATE         
 --------------------------------------------------
      1      1      1      1       1.000    

      1 WELL
 
 SOLVING FOR HEAD 

 OUTPUT CONTROL FOR STRESS PERIOD   27   TIME STEP   1
    SAVE HEAD FOR ALL LAYERS
    SAVE BUDGET
 UBDSV1 SAVING "         STORAGE" ON UNIT  31 AT TIME STEP  1, STRESS PERIOD  27
 UBDSV2 SAVING "   CONSTANT HEAD" ON UNIT  31 AT TIME STEP  1, STRESS PERIOD  27
 UBDSV1 SAVING "FLOW RIGHT FACE " ON UNIT  31 AT TIME STEP  1, STRESS PERIOD  27
 UBDSV4 SAVING "           WELLS" ON UNIT  31 AT TIME STEP  1, STRESS PERIOD  27

 SAVING SATURATED THICKNESS AND FLOW TERMS ON UNIT  333 FOR MT3DMS
 BY THE LINK-MT3DMS PACKAGE V6.3 AT TIME STEP    1, STRESS PERIOD   27


 HEAD WILL BE SAVED ON UNIT   30 AT END OF TIME STEP   1, STRESS PERIOD   27
1
  VOLUMETRIC BUDGET FOR ENTIRE MODEL AT END OF TIME STEP  1 IN STRESS PERIOD  27
  ------------------------------------------------------------------------------

     CUMULATIVE VOLUMES      L**3       RATES FOR THIS TIME STEP      L**3/T
     ------------------                 ------------------------

           IN:                                      IN:
           ---                                      ---
             STORAGE =       3.0158E-14               STORAGE =       5.7997E-13
       CONSTANT HEAD =           0.0000         CONSTANT HEAD =           0.0000
               WELLS =       5.4000E-02                 WELLS =           1.0000

            TOTAL IN =       5.4000E-02              TOTAL IN =           1.0000

          OUT:                                     OUT:
          ----                                     ----
             STORAGE =       3.1471E-14               STORAGE =       6.0521E-13
       CONSTANT HEAD =       5.4000E-02         CONSTANT HEAD =           1.0000
               WELLS =           0.0000                 WELLS =           0.0000

           TOTAL OUT =       5.4000E-02             TOTAL OUT =           1.0000

            IN - OUT =           0.0000              IN - OUT =           0.0000

 PERCENT DISCREPANCY =           0.00     PERCENT DISCREPANCY =           0.00






          TIME SUMMARY AT END OF TIME STEP   1 IN STRESS PERIOD   27
                    SECONDS     MINUTES      HOURS       DAYS        YEARS
                    -----------------------------------------------------------
   TIME STEP LENGTH  172.80      2.8800     4.80000E-02 2.00000E-03 5.47570E-06
 STRESS PERIOD TIME  172.80      2.8800     4.80000E-02 2.00000E-03 5.47570E-06
         TOTAL TIME  4665.6      77.760      1.2960     5.40000E-02 1.47844E-04
1
1
                            STRESS PERIOD NO.   28, LENGTH =  0.2000000E-02
                            -----------------------------------------------

                              NUMBER OF TIME STEPS =     1

                               MULTIPLIER FOR DELT =     1.000

                            INITIAL TIME STEP SIZE =  0.2000000E-02

 WELL NO.  LAYER   ROW   COL   STRESS RATE         
 --------------------------------------------------
      1      1      1      1       1.000    

      1 WELL
 
 SOLVING FOR HEAD 

 OUTPUT CONTROL FOR STRESS PERIOD   28   TIME STEP   1
    SAVE HEAD FOR ALL LAYERS
    SAVE BUDGET
 UBDSV1 SAVING "         STORAGE" ON UNIT  31 AT TIME STEP  1, STRESS PERIOD  28
 UBDSV2 SAVING "   CONSTANT HEAD" ON UNIT  31 AT TIME STEP  1, STRESS PERIOD  28
 UBDSV1 SAVING "FLOW RIGHT FACE " ON UNIT  31 AT TIME STEP  1, STRESS PERIOD  28
 UBDSV4 SAVING "           WELLS" ON UNIT  31 AT TIME STEP  1, STRESS PERIOD  28

 SAVING SATURATED THICKNESS AND FLOW TERMS ON UNIT  333 FOR MT3DMS
 BY THE LINK-MT3DMS PACKAGE V6.3 AT TIME STEP    1, STRESS PERIOD   28


 HEAD WILL BE SAVED ON UNIT   30 AT END OF TIME STEP   1, STRESS PERIOD   28
1
  VOLUMETRIC BUDGET FOR ENTIRE MODEL AT END OF TIME STEP  1 IN STRESS PERIOD  28
  ------------------------------------------------------------------------------

     CUMULATIVE VOLUMES      L**3       RATES FOR THIS TIME STEP      L**3/T
     ------------------                 ------------------------

           IN:                                      IN:
           ---                                      ---
             STORAGE =       3.1318E-14               STORAGE =       5.7997E-13
       CONSTANT HEAD =           0.0000         CONSTANT HEAD =           0.0000
               WELLS =       5.6000E-02                 WELLS =           1.0000

            TOTAL IN =       5.6000E-02              TOTAL IN =           1.0000

          OUT:                                     OUT:
          ----                                     ----
             STORAGE =       3.2682E-14               STORAGE =       6.0521E-13
       CONSTANT HEAD =       5.6000E-02         CONSTANT HEAD =           1.0000
               WELLS =           0.0000                 WELLS =           0.0000

           TOTAL OUT =       5.6000E-02             TOTAL OUT =           1.0000

            IN - OUT =           0.0000              IN - OUT =           0.0000

 PERCENT DISCREPANCY =           0.00     PERCENT DISCREPANCY =           0.00






          TIME SUMMARY AT END OF TIME STEP   1 IN STRESS PERIOD   28
                    SECONDS     MINUTES      HOURS       DAYS        YEARS
                    -----------------------------------------------------------
   TIME STEP LENGTH  172.80      2.8800     4.80000E-02 2.00000E-03 5.47570E-06
 STRESS PERIOD TIME  172.80      2.8800     4.80000E-02 2.00000E-03 5.47570E-06
         TOTAL TIME  4838.4      80.640      1.3440     5.60000E-02 1.53320E-04
1
1
                            STRESS PERIOD NO.   29, LENGTH =  0.2000000E-02
                            -----------------------------------------------

                              NUMBER OF TIME STEPS =     1

                               MULTIPLIER FOR DELT =     1.000

                            INITIAL TIME STEP SIZE =  0.2000000E-02

 WELL NO.  LAYER   ROW   COL   STRESS RATE         
 --------------------------------------------------
      1      1      1      1       1.000    

      1 WELL
 
 SOLVING FOR HEAD 

 OUTPUT CONTROL FOR STRESS PERIOD   29   TIME STEP   1
    SAVE HEAD FOR ALL LAYERS
    SAVE BUDGET
 UBDSV1 SAVING "         STORAGE" ON UNIT  31 AT TIME STEP  1, STRESS PERIOD  29
 UBDSV2 SAVING "   CONSTANT HEAD" ON UNIT  31 AT TIME STEP  1, STRESS PERIOD  29
 UBDSV1 SAVING "FLOW RIGHT FACE " ON UNIT  31 AT TIME STEP  1, STRESS PERIOD  29
 UBDSV4 SAVING "           WELLS" ON UNIT  31 AT TIME STEP  1, STRESS PERIOD  29

 SAVING SATURATED THICKNESS AND FLOW TERMS ON UNIT  333 FOR MT3DMS
 BY THE LINK-MT3DMS PACKAGE V6.3 AT TIME STEP    1, STRESS PERIOD   29


 HEAD WILL BE SAVED ON UNIT   30 AT END OF TIME STEP   1, STRESS PERIOD   29
1
  VOLUMETRIC BUDGET FOR ENTIRE MODEL AT END OF TIME STEP  1 IN STRESS PERIOD  29
  ------------------------------------------------------------------------------

     CUMULATIVE VOLUMES      L**3       RATES FOR THIS TIME STEP      L**3/T
     ------------------                 ------------------------

           IN:                                      IN:
           ---                                      ---
             STORAGE =       3.2478E-14               STORAGE =       5.7997E-13
       CONSTANT HEAD =           0.0000         CONSTANT HEAD =           0.0000
               WELLS =       5.8000E-02                 WELLS =           1.0000

            TOTAL IN =       5.8000E-02              TOTAL IN =           1.0000

          OUT:                                     OUT:
          ----                                     ----
             STORAGE =       3.3892E-14               STORAGE =       6.0521E-13
       CONSTANT HEAD =       5.8000E-02         CONSTANT HEAD =           1.0000
               WELLS =           0.0000                 WELLS =           0.0000

           TOTAL OUT =       5.8000E-02             TOTAL OUT =           1.0000

            IN - OUT =           0.0000              IN - OUT =           0.0000

 PERCENT DISCREPANCY =           0.00     PERCENT DISCREPANCY =           0.00






          TIME SUMMARY AT END OF TIME STEP   1 IN STRESS PERIOD   29
                    SECONDS     MINUTES      HOURS       DAYS        YEARS
                    -----------------------------------------------------------
   TIME STEP LENGTH  172.80      2.8800     4.80000E-02 2.00000E-03 5.47570E-06
 STRESS PERIOD TIME  172.80      2.8800     4.80000E-02 2.00000E-03 5.47570E-06
         TOTAL TIME  5011.2      83.520      1.3920     5.80000E-02 1.58795E-04
1
1
                            STRESS PERIOD NO.   30, LENGTH =  0.2000000E-02
                            -----------------------------------------------

                              NUMBER OF TIME STEPS =     1

                               MULTIPLIER FOR DELT =     1.000

                            INITIAL TIME STEP SIZE =  0.2000000E-02

 WELL NO.  LAYER   ROW   COL   STRESS RATE         
 --------------------------------------------------
      1      1      1      1       1.000    

      1 WELL
 
 SOLVING FOR HEAD 

 OUTPUT CONTROL FOR STRESS PERIOD   30   TIME STEP   1
    SAVE HEAD FOR ALL LAYERS
    SAVE BUDGET
 UBDSV1 SAVING "         STORAGE" ON UNIT  31 AT TIME STEP  1, STRESS PERIOD  30
 UBDSV2 SAVING "   CONSTANT HEAD" ON UNIT  31 AT TIME STEP  1, STRESS PERIOD  30
 UBDSV1 SAVING "FLOW RIGHT FACE " ON UNIT  31 AT TIME STEP  1, STRESS PERIOD  30
 UBDSV4 SAVING "           WELLS" ON UNIT  31 AT TIME STEP  1, STRESS PERIOD  30

 SAVING SATURATED THICKNESS AND FLOW TERMS ON UNIT  333 FOR MT3DMS
 BY THE LINK-MT3DMS PACKAGE V6.3 AT TIME STEP    1, STRESS PERIOD   30


 HEAD WILL BE SAVED ON UNIT   30 AT END OF TIME STEP   1, STRESS PERIOD   30
1
  VOLUMETRIC BUDGET FOR ENTIRE MODEL AT END OF TIME STEP  1 IN STRESS PERIOD  30
  ------------------------------------------------------------------------------

     CUMULATIVE VOLUMES      L**3       RATES FOR THIS TIME STEP      L**3/T
     ------------------                 ------------------------

           IN:                                      IN:
           ---                                      ---
             STORAGE =       3.3638E-14               STORAGE =       5.7997E-13
       CONSTANT HEAD =           0.0000         CONSTANT HEAD =           0.0000
               WELLS =       6.0000E-02                 WELLS =           1.0000

            TOTAL IN =       6.0000E-02              TOTAL IN =           1.0000

          OUT:                                     OUT:
          ----                                     ----
             STORAGE =       3.5102E-14               STORAGE =       6.0521E-13
       CONSTANT HEAD =       6.0000E-02         CONSTANT HEAD =           1.0000
               WELLS =           0.0000                 WELLS =           0.0000

           TOTAL OUT =       6.0000E-02             TOTAL OUT =           1.0000

            IN - OUT =           0.0000              IN - OUT =           0.0000

 PERCENT DISCREPANCY =           0.00     PERCENT DISCREPANCY =           0.00






          TIME SUMMARY AT END OF TIME STEP   1 IN STRESS PERIOD   30
                    SECONDS     MINUTES      HOURS       DAYS        YEARS
                    -----------------------------------------------------------
   TIME STEP LENGTH  172.80      2.8800     4.80000E-02 2.00000E-03 5.47570E-06
 STRESS PERIOD TIME  172.80      2.8800     4.80000E-02 2.00000E-03 5.47570E-06
         TOTAL TIME  5184.0      86.400      1.4400     6.00000E-02 1.64271E-04
1
1
                            STRESS PERIOD NO.   31, LENGTH =  0.2000000E-02
                            -----------------------------------------------

                              NUMBER OF TIME STEPS =     1

                               MULTIPLIER FOR DELT =     1.000

                            INITIAL TIME STEP SIZE =  0.2000000E-02

 WELL NO.  LAYER   ROW   COL   STRESS RATE         
 --------------------------------------------------
      1      1      1      1       1.000    

      1 WELL
 
 SOLVING FOR HEAD 

 OUTPUT CONTROL FOR STRESS PERIOD   31   TIME STEP   1
    SAVE HEAD FOR ALL LAYERS
    SAVE BUDGET
 UBDSV1 SAVING "         STORAGE" ON UNIT  31 AT TIME STEP  1, STRESS PERIOD  31
 UBDSV2 SAVING "   CONSTANT HEAD" ON UNIT  31 AT TIME STEP  1, STRESS PERIOD  31
 UBDSV1 SAVING "FLOW RIGHT FACE " ON UNIT  31 AT TIME STEP  1, STRESS PERIOD  31
 UBDSV4 SAVING "           WELLS" ON UNIT  31 AT TIME STEP  1, STRESS PERIOD  31

 SAVING SATURATED THICKNESS AND FLOW TERMS ON UNIT  333 FOR MT3DMS
 BY THE LINK-MT3DMS PACKAGE V6.3 AT TIME STEP    1, STRESS PERIOD   31


 HEAD WILL BE SAVED ON UNIT   30 AT END OF TIME STEP   1, STRESS PERIOD   31
1
  VOLUMETRIC BUDGET FOR ENTIRE MODEL AT END OF TIME STEP  1 IN STRESS PERIOD  31
  ------------------------------------------------------------------------------

     CUMULATIVE VOLUMES      L**3       RATES FOR THIS TIME STEP      L**3/T
     ------------------                 ------------------------

           IN:                                      IN:
           ---                                      ---
             STORAGE =       3.4798E-14               STORAGE =       5.7997E-13
       CONSTANT HEAD =           0.0000         CONSTANT HEAD =           0.0000
               WELLS =       6.2000E-02                 WELLS =           1.0000

            TOTAL IN =       6.2000E-02              TOTAL IN =           1.0000

          OUT:                                     OUT:
          ----                                     ----
             STORAGE =       3.6313E-14               STORAGE =       6.0521E-13
       CONSTANT HEAD =       6.2000E-02         CONSTANT HEAD =           1.0000
               WELLS =           0.0000                 WELLS =           0.0000

           TOTAL OUT =       6.2000E-02             TOTAL OUT =           1.0000

            IN - OUT =           0.0000              IN - OUT =           0.0000

 PERCENT DISCREPANCY =           0.00     PERCENT DISCREPANCY =           0.00






          TIME SUMMARY AT END OF TIME STEP   1 IN STRESS PERIOD   31
                    SECONDS     MINUTES      HOURS       DAYS        YEARS
                    -----------------------------------------------------------
   TIME STEP LENGTH  172.80      2.8800     4.80000E-02 2.00000E-03 5.47570E-06
 STRESS PERIOD TIME  172.80      2.8800     4.80000E-02 2.00000E-03 5.47570E-06
         TOTAL TIME  5356.8      89.280      1.4880     6.20000E-02 1.69747E-04
1
1
                            STRESS PERIOD NO.   32, LENGTH =  0.2000000E-02
                            -----------------------------------------------

                              NUMBER OF TIME STEPS =     1

                               MULTIPLIER FOR DELT =     1.000

                            INITIAL TIME STEP SIZE =  0.2000000E-02

 WELL NO.  LAYER   ROW   COL   STRESS RATE         
 --------------------------------------------------
      1      1      1      1       1.000    

      1 WELL
 
 SOLVING FOR HEAD 

 OUTPUT CONTROL FOR STRESS PERIOD   32   TIME STEP   1
    SAVE HEAD FOR ALL LAYERS
    SAVE BUDGET
 UBDSV1 SAVING "         STORAGE" ON UNIT  31 AT TIME STEP  1, STRESS PERIOD  32
 UBDSV2 SAVING "   CONSTANT HEAD" ON UNIT  31 AT TIME STEP  1, STRESS PERIOD  32
 UBDSV1 SAVING "FLOW RIGHT FACE " ON UNIT  31 AT TIME STEP  1, STRESS PERIOD  32
 UBDSV4 SAVING "           WELLS" ON UNIT  31 AT TIME STEP  1, STRESS PERIOD  32

 SAVING SATURATED THICKNESS AND FLOW TERMS ON UNIT  333 FOR MT3DMS
 BY THE LINK-MT3DMS PACKAGE V6.3 AT TIME STEP    1, STRESS PERIOD   32


 HEAD WILL BE SAVED ON UNIT   30 AT END OF TIME STEP   1, STRESS PERIOD   32
1
  VOLUMETRIC BUDGET FOR ENTIRE MODEL AT END OF TIME STEP  1 IN STRESS PERIOD  32
  ------------------------------------------------------------------------------

     CUMULATIVE VOLUMES      L**3       RATES FOR THIS TIME STEP      L**3/T
     ------------------                 ------------------------

           IN:                                      IN:
           ---                                      ---
             STORAGE =       3.5958E-14               STORAGE =       5.7997E-13
       CONSTANT HEAD =           0.0000         CONSTANT HEAD =           0.0000
               WELLS =       6.4000E-02                 WELLS =           1.0000

            TOTAL IN =       6.4000E-02              TOTAL IN =           1.0000

          OUT:                                     OUT:
          ----                                     ----
             STORAGE =       3.7523E-14               STORAGE =       6.0521E-13
       CONSTANT HEAD =       6.4000E-02         CONSTANT HEAD =           1.0000
               WELLS =           0.0000                 WELLS =           0.0000

           TOTAL OUT =       6.4000E-02             TOTAL OUT =           1.0000

            IN - OUT =           0.0000              IN - OUT =           0.0000

 PERCENT DISCREPANCY =           0.00     PERCENT DISCREPANCY =           0.00






          TIME SUMMARY AT END OF TIME STEP   1 IN STRESS PERIOD   32
                    SECONDS     MINUTES      HOURS       DAYS        YEARS
                    -----------------------------------------------------------
   TIME STEP LENGTH  172.80      2.8800     4.80000E-02 2.00000E-03 5.47570E-06
 STRESS PERIOD TIME  172.80      2.8800     4.80000E-02 2.00000E-03 5.47570E-06
         TOTAL TIME  5529.6      92.160      1.5360     6.40000E-02 1.75222E-04
1
1
                            STRESS PERIOD NO.   33, LENGTH =  0.2000000E-02
                            -----------------------------------------------

                              NUMBER OF TIME STEPS =     1

                               MULTIPLIER FOR DELT =     1.000

                            INITIAL TIME STEP SIZE =  0.2000000E-02

 WELL NO.  LAYER   ROW   COL   STRESS RATE         
 --------------------------------------------------
      1      1      1      1       1.000    

      1 WELL
 
 SOLVING FOR HEAD 

 OUTPUT CONTROL FOR STRESS PERIOD   33   TIME STEP   1
    SAVE HEAD FOR ALL LAYERS
    SAVE BUDGET
 UBDSV1 SAVING "         STORAGE" ON UNIT  31 AT TIME STEP  1, STRESS PERIOD  33
 UBDSV2 SAVING "   CONSTANT HEAD" ON UNIT  31 AT TIME STEP  1, STRESS PERIOD  33
 UBDSV1 SAVING "FLOW RIGHT FACE " ON UNIT  31 AT TIME STEP  1, STRESS PERIOD  33
 UBDSV4 SAVING "           WELLS" ON UNIT  31 AT TIME STEP  1, STRESS PERIOD  33

 SAVING SATURATED THICKNESS AND FLOW TERMS ON UNIT  333 FOR MT3DMS
 BY THE LINK-MT3DMS PACKAGE V6.3 AT TIME STEP    1, STRESS PERIOD   33


 HEAD WILL BE SAVED ON UNIT   30 AT END OF TIME STEP   1, STRESS PERIOD   33
1
  VOLUMETRIC BUDGET FOR ENTIRE MODEL AT END OF TIME STEP  1 IN STRESS PERIOD  33
  ------------------------------------------------------------------------------

     CUMULATIVE VOLUMES      L**3       RATES FOR THIS TIME STEP      L**3/T
     ------------------                 ------------------------

           IN:                                      IN:
           ---                                      ---
             STORAGE =       3.7118E-14               STORAGE =       5.7997E-13
       CONSTANT HEAD =           0.0000         CONSTANT HEAD =           0.0000
               WELLS =       6.6000E-02                 WELLS =           1.0000

            TOTAL IN =       6.6000E-02              TOTAL IN =           1.0000

          OUT:                                     OUT:
          ----                                     ----
             STORAGE =       3.8734E-14               STORAGE =       6.0521E-13
       CONSTANT HEAD =       6.6000E-02         CONSTANT HEAD =           1.0000
               WELLS =           0.0000                 WELLS =           0.0000

           TOTAL OUT =       6.6000E-02             TOTAL OUT =           1.0000

            IN - OUT =           0.0000              IN - OUT =           0.0000

 PERCENT DISCREPANCY =           0.00     PERCENT DISCREPANCY =           0.00






          TIME SUMMARY AT END OF TIME STEP   1 IN STRESS PERIOD   33
                    SECONDS     MINUTES      HOURS       DAYS        YEARS
                    -----------------------------------------------------------
   TIME STEP LENGTH  172.80      2.8800     4.80000E-02 2.00000E-03 5.47570E-06
 STRESS PERIOD TIME  172.80      2.8800     4.80000E-02 2.00000E-03 5.47570E-06
         TOTAL TIME  5702.4      95.040      1.5840     6.60000E-02 1.80698E-04
1
1
                            STRESS PERIOD NO.   34, LENGTH =  0.2000000E-02
                            -----------------------------------------------

                              NUMBER OF TIME STEPS =     1

                               MULTIPLIER FOR DELT =     1.000

                            INITIAL TIME STEP SIZE =  0.2000000E-02

 WELL NO.  LAYER   ROW   COL   STRESS RATE         
 --------------------------------------------------
      1      1      1      1       1.000    

      1 WELL
 
 SOLVING FOR HEAD 

 OUTPUT CONTROL FOR STRESS PERIOD   34   TIME STEP   1
    SAVE HEAD FOR ALL LAYERS
    SAVE BUDGET
 UBDSV1 SAVING "         STORAGE" ON UNIT  31 AT TIME STEP  1, STRESS PERIOD  34
 UBDSV2 SAVING "   CONSTANT HEAD" ON UNIT  31 AT TIME STEP  1, STRESS PERIOD  34
 UBDSV1 SAVING "FLOW RIGHT FACE " ON UNIT  31 AT TIME STEP  1, STRESS PERIOD  34
 UBDSV4 SAVING "           WELLS" ON UNIT  31 AT TIME STEP  1, STRESS PERIOD  34

 SAVING SATURATED THICKNESS AND FLOW TERMS ON UNIT  333 FOR MT3DMS
 BY THE LINK-MT3DMS PACKAGE V6.3 AT TIME STEP    1, STRESS PERIOD   34


 HEAD WILL BE SAVED ON UNIT   30 AT END OF TIME STEP   1, STRESS PERIOD   34
1
  VOLUMETRIC BUDGET FOR ENTIRE MODEL AT END OF TIME STEP  1 IN STRESS PERIOD  34
  ------------------------------------------------------------------------------

     CUMULATIVE VOLUMES      L**3       RATES FOR THIS TIME STEP      L**3/T
     ------------------                 ------------------------

           IN:                                      IN:
           ---                                      ---
             STORAGE =       3.8278E-14               STORAGE =       5.7997E-13
       CONSTANT HEAD =           0.0000         CONSTANT HEAD =           0.0000
               WELLS =       6.8000E-02                 WELLS =           1.0000

            TOTAL IN =       6.8000E-02              TOTAL IN =           1.0000

          OUT:                                     OUT:
          ----                                     ----
             STORAGE =       3.9944E-14               STORAGE =       6.0521E-13
       CONSTANT HEAD =       6.8000E-02         CONSTANT HEAD =           1.0000
               WELLS =           0.0000                 WELLS =           0.0000

           TOTAL OUT =       6.8000E-02             TOTAL OUT =           1.0000

            IN - OUT =           0.0000              IN - OUT =           0.0000

 PERCENT DISCREPANCY =           0.00     PERCENT DISCREPANCY =           0.00






          TIME SUMMARY AT END OF TIME STEP   1 IN STRESS PERIOD   34
                    SECONDS     MINUTES      HOURS       DAYS        YEARS
                    -----------------------------------------------------------
   TIME STEP LENGTH  172.80      2.8800     4.80000E-02 2.00000E-03 5.47570E-06
 STRESS PERIOD TIME  172.80      2.8800     4.80000E-02 2.00000E-03 5.47570E-06
         TOTAL TIME  5875.2      97.920      1.6320     6.80000E-02 1.86174E-04
1
1
                            STRESS PERIOD NO.   35, LENGTH =  0.2000000E-02
                            -----------------------------------------------

                              NUMBER OF TIME STEPS =     1

                               MULTIPLIER FOR DELT =     1.000

                            INITIAL TIME STEP SIZE =  0.2000000E-02

 WELL NO.  LAYER   ROW   COL   STRESS RATE         
 --------------------------------------------------
      1      1      1      1       1.000    

      1 WELL
 
 SOLVING FOR HEAD 

 OUTPUT CONTROL FOR STRESS PERIOD   35   TIME STEP   1
    SAVE HEAD FOR ALL LAYERS
    SAVE BUDGET
 UBDSV1 SAVING "         STORAGE" ON UNIT  31 AT TIME STEP  1, STRESS PERIOD  35
 UBDSV2 SAVING "   CONSTANT HEAD" ON UNIT  31 AT TIME STEP  1, STRESS PERIOD  35
 UBDSV1 SAVING "FLOW RIGHT FACE " ON UNIT  31 AT TIME STEP  1, STRESS PERIOD  35
 UBDSV4 SAVING "           WELLS" ON UNIT  31 AT TIME STEP  1, STRESS PERIOD  35

 SAVING SATURATED THICKNESS AND FLOW TERMS ON UNIT  333 FOR MT3DMS
 BY THE LINK-MT3DMS PACKAGE V6.3 AT TIME STEP    1, STRESS PERIOD   35


 HEAD WILL BE SAVED ON UNIT   30 AT END OF TIME STEP   1, STRESS PERIOD   35
1
  VOLUMETRIC BUDGET FOR ENTIRE MODEL AT END OF TIME STEP  1 IN STRESS PERIOD  35
  ------------------------------------------------------------------------------

     CUMULATIVE VOLUMES      L**3       RATES FOR THIS TIME STEP      L**3/T
     ------------------                 ------------------------

           IN:                                      IN:
           ---                                      ---
             STORAGE =       3.9438E-14               STORAGE =       5.7997E-13
       CONSTANT HEAD =           0.0000         CONSTANT HEAD =           0.0000
               WELLS =       7.0000E-02                 WELLS =           1.0000

            TOTAL IN =       7.0000E-02              TOTAL IN =           1.0000

          OUT:                                     OUT:
          ----                                     ----
             STORAGE =       4.1155E-14               STORAGE =       6.0521E-13
       CONSTANT HEAD =       7.0000E-02         CONSTANT HEAD =           1.0000
               WELLS =           0.0000                 WELLS =           0.0000

           TOTAL OUT =       7.0000E-02             TOTAL OUT =           1.0000

            IN - OUT =           0.0000              IN - OUT =           0.0000

 PERCENT DISCREPANCY =           0.00     PERCENT DISCREPANCY =           0.00






          TIME SUMMARY AT END OF TIME STEP   1 IN STRESS PERIOD   35
                    SECONDS     MINUTES      HOURS       DAYS        YEARS
                    -----------------------------------------------------------
   TIME STEP LENGTH  172.80      2.8800     4.80000E-02 2.00000E-03 5.47570E-06
 STRESS PERIOD TIME  172.80      2.8800     4.80000E-02 2.00000E-03 5.47570E-06
         TOTAL TIME  6048.0      100.80      1.6800     7.00000E-02 1.91650E-04
1
1
                            STRESS PERIOD NO.   36, LENGTH =  0.2000000E-02
                            -----------------------------------------------

                              NUMBER OF TIME STEPS =     1

                               MULTIPLIER FOR DELT =     1.000

                            INITIAL TIME STEP SIZE =  0.2000000E-02

 WELL NO.  LAYER   ROW   COL   STRESS RATE         
 --------------------------------------------------
      1      1      1      1       1.000    

      1 WELL
 
 SOLVING FOR HEAD 

 OUTPUT CONTROL FOR STRESS PERIOD   36   TIME STEP   1
    SAVE HEAD FOR ALL LAYERS
    SAVE BUDGET
 UBDSV1 SAVING "         STORAGE" ON UNIT  31 AT TIME STEP  1, STRESS PERIOD  36
 UBDSV2 SAVING "   CONSTANT HEAD" ON UNIT  31 AT TIME STEP  1, STRESS PERIOD  36
 UBDSV1 SAVING "FLOW RIGHT FACE " ON UNIT  31 AT TIME STEP  1, STRESS PERIOD  36
 UBDSV4 SAVING "           WELLS" ON UNIT  31 AT TIME STEP  1, STRESS PERIOD  36

 SAVING SATURATED THICKNESS AND FLOW TERMS ON UNIT  333 FOR MT3DMS
 BY THE LINK-MT3DMS PACKAGE V6.3 AT TIME STEP    1, STRESS PERIOD   36


 HEAD WILL BE SAVED ON UNIT   30 AT END OF TIME STEP   1, STRESS PERIOD   36
1
  VOLUMETRIC BUDGET FOR ENTIRE MODEL AT END OF TIME STEP  1 IN STRESS PERIOD  36
  ------------------------------------------------------------------------------

     CUMULATIVE VOLUMES      L**3       RATES FOR THIS TIME STEP      L**3/T
     ------------------                 ------------------------

           IN:                                      IN:
           ---                                      ---
             STORAGE =       4.0598E-14               STORAGE =       5.7997E-13
       CONSTANT HEAD =           0.0000         CONSTANT HEAD =           0.0000
               WELLS =       7.2000E-02                 WELLS =           1.0000

            TOTAL IN =       7.2000E-02              TOTAL IN =           1.0000

          OUT:                                     OUT:
          ----                                     ----
             STORAGE =       4.2365E-14               STORAGE =       6.0521E-13
       CONSTANT HEAD =       7.2000E-02         CONSTANT HEAD =           1.0000
               WELLS =           0.0000                 WELLS =           0.0000

           TOTAL OUT =       7.2000E-02             TOTAL OUT =           1.0000

            IN - OUT =           0.0000              IN - OUT =           0.0000

 PERCENT DISCREPANCY =           0.00     PERCENT DISCREPANCY =           0.00






          TIME SUMMARY AT END OF TIME STEP   1 IN STRESS PERIOD   36
                    SECONDS     MINUTES      HOURS       DAYS        YEARS
                    -----------------------------------------------------------
   TIME STEP LENGTH  172.80      2.8800     4.80000E-02 2.00000E-03 5.47570E-06
 STRESS PERIOD TIME  172.80      2.8800     4.80000E-02 2.00000E-03 5.47570E-06
         TOTAL TIME  6220.8      103.68      1.7280     7.20000E-02 1.97125E-04
1
1
                            STRESS PERIOD NO.   37, LENGTH =  0.2000000E-02
                            -----------------------------------------------

                              NUMBER OF TIME STEPS =     1

                               MULTIPLIER FOR DELT =     1.000

                            INITIAL TIME STEP SIZE =  0.2000000E-02

 WELL NO.  LAYER   ROW   COL   STRESS RATE         
 --------------------------------------------------
      1      1      1      1       1.000    

      1 WELL
 
 SOLVING FOR HEAD 

 OUTPUT CONTROL FOR STRESS PERIOD   37   TIME STEP   1
    SAVE HEAD FOR ALL LAYERS
    SAVE BUDGET
 UBDSV1 SAVING "         STORAGE" ON UNIT  31 AT TIME STEP  1, STRESS PERIOD  37
 UBDSV2 SAVING "   CONSTANT HEAD" ON UNIT  31 AT TIME STEP  1, STRESS PERIOD  37
 UBDSV1 SAVING "FLOW RIGHT FACE " ON UNIT  31 AT TIME STEP  1, STRESS PERIOD  37
 UBDSV4 SAVING "           WELLS" ON UNIT  31 AT TIME STEP  1, STRESS PERIOD  37

 SAVING SATURATED THICKNESS AND FLOW TERMS ON UNIT  333 FOR MT3DMS
 BY THE LINK-MT3DMS PACKAGE V6.3 AT TIME STEP    1, STRESS PERIOD   37


 HEAD WILL BE SAVED ON UNIT   30 AT END OF TIME STEP   1, STRESS PERIOD   37
1
  VOLUMETRIC BUDGET FOR ENTIRE MODEL AT END OF TIME STEP  1 IN STRESS PERIOD  37
  ------------------------------------------------------------------------------

     CUMULATIVE VOLUMES      L**3       RATES FOR THIS TIME STEP      L**3/T
     ------------------                 ------------------------

           IN:                                      IN:
           ---                                      ---
             STORAGE =       4.1758E-14               STORAGE =       5.7997E-13
       CONSTANT HEAD =           0.0000         CONSTANT HEAD =           0.0000
               WELLS =       7.4000E-02                 WELLS =           1.0000

            TOTAL IN =       7.4000E-02              TOTAL IN =           1.0000

          OUT:                                     OUT:
          ----                                     ----
             STORAGE =       4.3575E-14               STORAGE =       6.0521E-13
       CONSTANT HEAD =       7.4000E-02         CONSTANT HEAD =           1.0000
               WELLS =           0.0000                 WELLS =           0.0000

           TOTAL OUT =       7.4000E-02             TOTAL OUT =           1.0000

            IN - OUT =           0.0000              IN - OUT =           0.0000

 PERCENT DISCREPANCY =           0.00     PERCENT DISCREPANCY =           0.00






          TIME SUMMARY AT END OF TIME STEP   1 IN STRESS PERIOD   37
                    SECONDS     MINUTES      HOURS       DAYS        YEARS
                    -----------------------------------------------------------
   TIME STEP LENGTH  172.80      2.8800     4.80000E-02 2.00000E-03 5.47570E-06
 STRESS PERIOD TIME  172.80      2.8800     4.80000E-02 2.00000E-03 5.47570E-06
         TOTAL TIME  6393.6      106.56      1.7760     7.40000E-02 2.02601E-04
1
1
                            STRESS PERIOD NO.   38, LENGTH =  0.2000000E-02
                            -----------------------------------------------

                              NUMBER OF TIME STEPS =     1

                               MULTIPLIER FOR DELT =     1.000

                            INITIAL TIME STEP SIZE =  0.2000000E-02

 WELL NO.  LAYER   ROW   COL   STRESS RATE         
 --------------------------------------------------
      1      1      1      1       1.000    

      1 WELL
 
 SOLVING FOR HEAD 

 OUTPUT CONTROL FOR STRESS PERIOD   38   TIME STEP   1
    SAVE HEAD FOR ALL LAYERS
    SAVE BUDGET
 UBDSV1 SAVING "         STORAGE" ON UNIT  31 AT TIME STEP  1, STRESS PERIOD  38
 UBDSV2 SAVING "   CONSTANT HEAD" ON UNIT  31 AT TIME STEP  1, STRESS PERIOD  38
 UBDSV1 SAVING "FLOW RIGHT FACE " ON UNIT  31 AT TIME STEP  1, STRESS PERIOD  38
 UBDSV4 SAVING "           WELLS" ON UNIT  31 AT TIME STEP  1, STRESS PERIOD  38

 SAVING SATURATED THICKNESS AND FLOW TERMS ON UNIT  333 FOR MT3DMS
 BY THE LINK-MT3DMS PACKAGE V6.3 AT TIME STEP    1, STRESS PERIOD   38


 HEAD WILL BE SAVED ON UNIT   30 AT END OF TIME STEP   1, STRESS PERIOD   38
1
  VOLUMETRIC BUDGET FOR ENTIRE MODEL AT END OF TIME STEP  1 IN STRESS PERIOD  38
  ------------------------------------------------------------------------------

     CUMULATIVE VOLUMES      L**3       RATES FOR THIS TIME STEP      L**3/T
     ------------------                 ------------------------

           IN:                                      IN:
           ---                                      ---
             STORAGE =       4.2918E-14               STORAGE =       5.7997E-13
       CONSTANT HEAD =           0.0000         CONSTANT HEAD =           0.0000
               WELLS =       7.6000E-02                 WELLS =           1.0000

            TOTAL IN =       7.6000E-02              TOTAL IN =           1.0000

          OUT:                                     OUT:
          ----                                     ----
             STORAGE =       4.4786E-14               STORAGE =       6.0521E-13
       CONSTANT HEAD =       7.6000E-02         CONSTANT HEAD =           1.0000
               WELLS =           0.0000                 WELLS =           0.0000

           TOTAL OUT =       7.6000E-02             TOTAL OUT =           1.0000

            IN - OUT =           0.0000              IN - OUT =           0.0000

 PERCENT DISCREPANCY =           0.00     PERCENT DISCREPANCY =           0.00






          TIME SUMMARY AT END OF TIME STEP   1 IN STRESS PERIOD   38
                    SECONDS     MINUTES      HOURS       DAYS        YEARS
                    -----------------------------------------------------------
   TIME STEP LENGTH  172.80      2.8800     4.80000E-02 2.00000E-03 5.47570E-06
 STRESS PERIOD TIME  172.80      2.8800     4.80000E-02 2.00000E-03 5.47570E-06
         TOTAL TIME  6566.4      109.44      1.8240     7.60000E-02 2.08077E-04
1
1
                            STRESS PERIOD NO.   39, LENGTH =  0.2000000E-02
                            -----------------------------------------------

                              NUMBER OF TIME STEPS =     1

                               MULTIPLIER FOR DELT =     1.000

                            INITIAL TIME STEP SIZE =  0.2000000E-02

 WELL NO.  LAYER   ROW   COL   STRESS RATE         
 --------------------------------------------------
      1      1      1      1       1.000    

      1 WELL
 
 SOLVING FOR HEAD 

 OUTPUT CONTROL FOR STRESS PERIOD   39   TIME STEP   1
    SAVE HEAD FOR ALL LAYERS
    SAVE BUDGET
 UBDSV1 SAVING "         STORAGE" ON UNIT  31 AT TIME STEP  1, STRESS PERIOD  39
 UBDSV2 SAVING "   CONSTANT HEAD" ON UNIT  31 AT TIME STEP  1, STRESS PERIOD  39
 UBDSV1 SAVING "FLOW RIGHT FACE " ON UNIT  31 AT TIME STEP  1, STRESS PERIOD  39
 UBDSV4 SAVING "           WELLS" ON UNIT  31 AT TIME STEP  1, STRESS PERIOD  39

 SAVING SATURATED THICKNESS AND FLOW TERMS ON UNIT  333 FOR MT3DMS
 BY THE LINK-MT3DMS PACKAGE V6.3 AT TIME STEP    1, STRESS PERIOD   39


 HEAD WILL BE SAVED ON UNIT   30 AT END OF TIME STEP   1, STRESS PERIOD   39
1
  VOLUMETRIC BUDGET FOR ENTIRE MODEL AT END OF TIME STEP  1 IN STRESS PERIOD  39
  ------------------------------------------------------------------------------

     CUMULATIVE VOLUMES      L**3       RATES FOR THIS TIME STEP      L**3/T
     ------------------                 ------------------------

           IN:                                      IN:
           ---                                      ---
             STORAGE =       4.4078E-14               STORAGE =       5.7997E-13
       CONSTANT HEAD =           0.0000         CONSTANT HEAD =           0.0000
               WELLS =       7.8000E-02                 WELLS =           1.0000

            TOTAL IN =       7.8000E-02              TOTAL IN =           1.0000

          OUT:                                     OUT:
          ----                                     ----
             STORAGE =       4.5996E-14               STORAGE =       6.0521E-13
       CONSTANT HEAD =       7.8000E-02         CONSTANT HEAD =           1.0000
               WELLS =           0.0000                 WELLS =           0.0000

           TOTAL OUT =       7.8000E-02             TOTAL OUT =           1.0000

            IN - OUT =           0.0000              IN - OUT =           0.0000

 PERCENT DISCREPANCY =           0.00     PERCENT DISCREPANCY =           0.00






          TIME SUMMARY AT END OF TIME STEP   1 IN STRESS PERIOD   39
                    SECONDS     MINUTES      HOURS       DAYS        YEARS
                    -----------------------------------------------------------
   TIME STEP LENGTH  172.80      2.8800     4.80000E-02 2.00000E-03 5.47570E-06
 STRESS PERIOD TIME  172.80      2.8800     4.80000E-02 2.00000E-03 5.47570E-06
         TOTAL TIME  6739.2      112.32      1.8720     7.80000E-02 2.13552E-04
1
1
                            STRESS PERIOD NO.   40, LENGTH =  0.2000000E-02
                            -----------------------------------------------

                              NUMBER OF TIME STEPS =     1

                               MULTIPLIER FOR DELT =     1.000

                            INITIAL TIME STEP SIZE =  0.2000000E-02

 WELL NO.  LAYER   ROW   COL   STRESS RATE         
 --------------------------------------------------
      1      1      1      1       1.000    

      1 WELL
 
 SOLVING FOR HEAD 

 OUTPUT CONTROL FOR STRESS PERIOD   40   TIME STEP   1
    SAVE HEAD FOR ALL LAYERS
    SAVE BUDGET
 UBDSV1 SAVING "         STORAGE" ON UNIT  31 AT TIME STEP  1, STRESS PERIOD  40
 UBDSV2 SAVING "   CONSTANT HEAD" ON UNIT  31 AT TIME STEP  1, STRESS PERIOD  40
 UBDSV1 SAVING "FLOW RIGHT FACE " ON UNIT  31 AT TIME STEP  1, STRESS PERIOD  40
 UBDSV4 SAVING "           WELLS" ON UNIT  31 AT TIME STEP  1, STRESS PERIOD  40

 SAVING SATURATED THICKNESS AND FLOW TERMS ON UNIT  333 FOR MT3DMS
 BY THE LINK-MT3DMS PACKAGE V6.3 AT TIME STEP    1, STRESS PERIOD   40


 HEAD WILL BE SAVED ON UNIT   30 AT END OF TIME STEP   1, STRESS PERIOD   40
1
  VOLUMETRIC BUDGET FOR ENTIRE MODEL AT END OF TIME STEP  1 IN STRESS PERIOD  40
  ------------------------------------------------------------------------------

     CUMULATIVE VOLUMES      L**3       RATES FOR THIS TIME STEP      L**3/T
     ------------------                 ------------------------

           IN:                                      IN:
           ---                                      ---
             STORAGE =       4.5237E-14               STORAGE =       5.7997E-13
       CONSTANT HEAD =           0.0000         CONSTANT HEAD =           0.0000
               WELLS =       8.0000E-02                 WELLS =           1.0000

            TOTAL IN =       8.0000E-02              TOTAL IN =           1.0000

          OUT:                                     OUT:
          ----                                     ----
             STORAGE =       4.7207E-14               STORAGE =       6.0521E-13
       CONSTANT HEAD =       8.0000E-02         CONSTANT HEAD =           1.0000
               WELLS =           0.0000                 WELLS =           0.0000

           TOTAL OUT =       8.0000E-02             TOTAL OUT =           1.0000

            IN - OUT =           0.0000              IN - OUT =           0.0000

 PERCENT DISCREPANCY =           0.00     PERCENT DISCREPANCY =           0.00






          TIME SUMMARY AT END OF TIME STEP   1 IN STRESS PERIOD   40
                    SECONDS     MINUTES      HOURS       DAYS        YEARS
                    -----------------------------------------------------------
   TIME STEP LENGTH  172.80      2.8800     4.80000E-02 2.00000E-03 5.47570E-06
 STRESS PERIOD TIME  172.80      2.8800     4.80000E-02 2.00000E-03 5.47570E-06
         TOTAL TIME  6912.0      115.20      1.9200     8.00000E-02 2.19028E-04
1
1
                            STRESS PERIOD NO.   41, LENGTH =  0.2000000E-02
                            -----------------------------------------------

                              NUMBER OF TIME STEPS =     1

                               MULTIPLIER FOR DELT =     1.000

                            INITIAL TIME STEP SIZE =  0.2000000E-02

 WELL NO.  LAYER   ROW   COL   STRESS RATE         
 --------------------------------------------------
      1      1      1      1       1.000    

      1 WELL
 
 SOLVING FOR HEAD 

 OUTPUT CONTROL FOR STRESS PERIOD   41   TIME STEP   1
    SAVE HEAD FOR ALL LAYERS
    SAVE BUDGET
 UBDSV1 SAVING "         STORAGE" ON UNIT  31 AT TIME STEP  1, STRESS PERIOD  41
 UBDSV2 SAVING "   CONSTANT HEAD" ON UNIT  31 AT TIME STEP  1, STRESS PERIOD  41
 UBDSV1 SAVING "FLOW RIGHT FACE " ON UNIT  31 AT TIME STEP  1, STRESS PERIOD  41
 UBDSV4 SAVING "           WELLS" ON UNIT  31 AT TIME STEP  1, STRESS PERIOD  41

 SAVING SATURATED THICKNESS AND FLOW TERMS ON UNIT  333 FOR MT3DMS
 BY THE LINK-MT3DMS PACKAGE V6.3 AT TIME STEP    1, STRESS PERIOD   41


 HEAD WILL BE SAVED ON UNIT   30 AT END OF TIME STEP   1, STRESS PERIOD   41
1
  VOLUMETRIC BUDGET FOR ENTIRE MODEL AT END OF TIME STEP  1 IN STRESS PERIOD  41
  ------------------------------------------------------------------------------

     CUMULATIVE VOLUMES      L**3       RATES FOR THIS TIME STEP      L**3/T
     ------------------                 ------------------------

           IN:                                      IN:
           ---                                      ---
             STORAGE =       4.6397E-14               STORAGE =       5.7997E-13
       CONSTANT HEAD =           0.0000         CONSTANT HEAD =           0.0000
               WELLS =       8.2000E-02                 WELLS =           1.0000

            TOTAL IN =       8.2000E-02              TOTAL IN =           1.0000

          OUT:                                     OUT:
          ----                                     ----
             STORAGE =       4.8417E-14               STORAGE =       6.0521E-13
       CONSTANT HEAD =       8.2000E-02         CONSTANT HEAD =           1.0000
               WELLS =           0.0000                 WELLS =           0.0000

           TOTAL OUT =       8.2000E-02             TOTAL OUT =           1.0000

            IN - OUT =           0.0000              IN - OUT =           0.0000

 PERCENT DISCREPANCY =           0.00     PERCENT DISCREPANCY =           0.00






          TIME SUMMARY AT END OF TIME STEP   1 IN STRESS PERIOD   41
                    SECONDS     MINUTES      HOURS       DAYS        YEARS
                    -----------------------------------------------------------
   TIME STEP LENGTH  172.80      2.8800     4.80000E-02 2.00000E-03 5.47570E-06
 STRESS PERIOD TIME  172.80      2.8800     4.80000E-02 2.00000E-03 5.47570E-06
         TOTAL TIME  7084.8      118.08      1.9680     8.20000E-02 2.24504E-04
1
1
                            STRESS PERIOD NO.   42, LENGTH =  0.2000000E-02
                            -----------------------------------------------

                              NUMBER OF TIME STEPS =     1

                               MULTIPLIER FOR DELT =     1.000

                            INITIAL TIME STEP SIZE =  0.2000000E-02

 WELL NO.  LAYER   ROW   COL   STRESS RATE         
 --------------------------------------------------
      1      1      1      1       1.000    

      1 WELL
 
 SOLVING FOR HEAD 

 OUTPUT CONTROL FOR STRESS PERIOD   42   TIME STEP   1
    SAVE HEAD FOR ALL LAYERS
    SAVE BUDGET
 UBDSV1 SAVING "         STORAGE" ON UNIT  31 AT TIME STEP  1, STRESS PERIOD  42
 UBDSV2 SAVING "   CONSTANT HEAD" ON UNIT  31 AT TIME STEP  1, STRESS PERIOD  42
 UBDSV1 SAVING "FLOW RIGHT FACE " ON UNIT  31 AT TIME STEP  1, STRESS PERIOD  42
 UBDSV4 SAVING "           WELLS" ON UNIT  31 AT TIME STEP  1, STRESS PERIOD  42

 SAVING SATURATED THICKNESS AND FLOW TERMS ON UNIT  333 FOR MT3DMS
 BY THE LINK-MT3DMS PACKAGE V6.3 AT TIME STEP    1, STRESS PERIOD   42


 HEAD WILL BE SAVED ON UNIT   30 AT END OF TIME STEP   1, STRESS PERIOD   42
1
  VOLUMETRIC BUDGET FOR ENTIRE MODEL AT END OF TIME STEP  1 IN STRESS PERIOD  42
  ------------------------------------------------------------------------------

     CUMULATIVE VOLUMES      L**3       RATES FOR THIS TIME STEP      L**3/T
     ------------------                 ------------------------

           IN:                                      IN:
           ---                                      ---
             STORAGE =       4.7557E-14               STORAGE =       5.7997E-13
       CONSTANT HEAD =           0.0000         CONSTANT HEAD =           0.0000
               WELLS =       8.4000E-02                 WELLS =           1.0000

            TOTAL IN =       8.4000E-02              TOTAL IN =           1.0000

          OUT:                                     OUT:
          ----                                     ----
             STORAGE =       4.9628E-14               STORAGE =       6.0521E-13
       CONSTANT HEAD =       8.4000E-02         CONSTANT HEAD =           1.0000
               WELLS =           0.0000                 WELLS =           0.0000

           TOTAL OUT =       8.4000E-02             TOTAL OUT =           1.0000

            IN - OUT =           0.0000              IN - OUT =           0.0000

 PERCENT DISCREPANCY =           0.00     PERCENT DISCREPANCY =           0.00






          TIME SUMMARY AT END OF TIME STEP   1 IN STRESS PERIOD   42
                    SECONDS     MINUTES      HOURS       DAYS        YEARS
                    -----------------------------------------------------------
   TIME STEP LENGTH  172.80      2.8800     4.80000E-02 2.00000E-03 5.47570E-06
 STRESS PERIOD TIME  172.80      2.8800     4.80000E-02 2.00000E-03 5.47570E-06
         TOTAL TIME  7257.6      120.96      2.0160     8.40000E-02 2.29979E-04
1
1
                            STRESS PERIOD NO.   43, LENGTH =  0.2000000E-02
                            -----------------------------------------------

                              NUMBER OF TIME STEPS =     1

                               MULTIPLIER FOR DELT =     1.000

                            INITIAL TIME STEP SIZE =  0.2000000E-02

 WELL NO.  LAYER   ROW   COL   STRESS RATE         
 --------------------------------------------------
      1      1      1      1       1.000    

      1 WELL
 
 SOLVING FOR HEAD 

 OUTPUT CONTROL FOR STRESS PERIOD   43   TIME STEP   1
    SAVE HEAD FOR ALL LAYERS
    SAVE BUDGET
 UBDSV1 SAVING "         STORAGE" ON UNIT  31 AT TIME STEP  1, STRESS PERIOD  43
 UBDSV2 SAVING "   CONSTANT HEAD" ON UNIT  31 AT TIME STEP  1, STRESS PERIOD  43
 UBDSV1 SAVING "FLOW RIGHT FACE " ON UNIT  31 AT TIME STEP  1, STRESS PERIOD  43
 UBDSV4 SAVING "           WELLS" ON UNIT  31 AT TIME STEP  1, STRESS PERIOD  43

 SAVING SATURATED THICKNESS AND FLOW TERMS ON UNIT  333 FOR MT3DMS
 BY THE LINK-MT3DMS PACKAGE V6.3 AT TIME STEP    1, STRESS PERIOD   43


 HEAD WILL BE SAVED ON UNIT   30 AT END OF TIME STEP   1, STRESS PERIOD   43
1
  VOLUMETRIC BUDGET FOR ENTIRE MODEL AT END OF TIME STEP  1 IN STRESS PERIOD  43
  ------------------------------------------------------------------------------

     CUMULATIVE VOLUMES      L**3       RATES FOR THIS TIME STEP      L**3/T
     ------------------                 ------------------------

           IN:                                      IN:
           ---                                      ---
             STORAGE =       4.8717E-14               STORAGE =       5.7997E-13
       CONSTANT HEAD =           0.0000         CONSTANT HEAD =           0.0000
               WELLS =       8.6000E-02                 WELLS =           1.0000

            TOTAL IN =       8.6000E-02              TOTAL IN =           1.0000

          OUT:                                     OUT:
          ----                                     ----
             STORAGE =       5.0838E-14               STORAGE =       6.0521E-13
       CONSTANT HEAD =       8.6000E-02         CONSTANT HEAD =           1.0000
               WELLS =           0.0000                 WELLS =           0.0000

           TOTAL OUT =       8.6000E-02             TOTAL OUT =           1.0000

            IN - OUT =           0.0000              IN - OUT =           0.0000

 PERCENT DISCREPANCY =           0.00     PERCENT DISCREPANCY =           0.00






          TIME SUMMARY AT END OF TIME STEP   1 IN STRESS PERIOD   43
                    SECONDS     MINUTES      HOURS       DAYS        YEARS
                    -----------------------------------------------------------
   TIME STEP LENGTH  172.80      2.8800     4.80000E-02 2.00000E-03 5.47570E-06
 STRESS PERIOD TIME  172.80      2.8800     4.80000E-02 2.00000E-03 5.47570E-06
         TOTAL TIME  7430.4      123.84      2.0640     8.60000E-02 2.35455E-04
1
1
                            STRESS PERIOD NO.   44, LENGTH =  0.2000000E-02
                            -----------------------------------------------

                              NUMBER OF TIME STEPS =     1

                               MULTIPLIER FOR DELT =     1.000

                            INITIAL TIME STEP SIZE =  0.2000000E-02

 WELL NO.  LAYER   ROW   COL   STRESS RATE         
 --------------------------------------------------
      1      1      1      1       1.000    

      1 WELL
 
 SOLVING FOR HEAD 

 OUTPUT CONTROL FOR STRESS PERIOD   44   TIME STEP   1
    SAVE HEAD FOR ALL LAYERS
    SAVE BUDGET
 UBDSV1 SAVING "         STORAGE" ON UNIT  31 AT TIME STEP  1, STRESS PERIOD  44
 UBDSV2 SAVING "   CONSTANT HEAD" ON UNIT  31 AT TIME STEP  1, STRESS PERIOD  44
 UBDSV1 SAVING "FLOW RIGHT FACE " ON UNIT  31 AT TIME STEP  1, STRESS PERIOD  44
 UBDSV4 SAVING "           WELLS" ON UNIT  31 AT TIME STEP  1, STRESS PERIOD  44

 SAVING SATURATED THICKNESS AND FLOW TERMS ON UNIT  333 FOR MT3DMS
 BY THE LINK-MT3DMS PACKAGE V6.3 AT TIME STEP    1, STRESS PERIOD   44


 HEAD WILL BE SAVED ON UNIT   30 AT END OF TIME STEP   1, STRESS PERIOD   44
1
  VOLUMETRIC BUDGET FOR ENTIRE MODEL AT END OF TIME STEP  1 IN STRESS PERIOD  44
  ------------------------------------------------------------------------------

     CUMULATIVE VOLUMES      L**3       RATES FOR THIS TIME STEP      L**3/T
     ------------------                 ------------------------

           IN:                                      IN:
           ---                                      ---
             STORAGE =       4.9877E-14               STORAGE =       5.7997E-13
       CONSTANT HEAD =           0.0000         CONSTANT HEAD =           0.0000
               WELLS =       8.8000E-02                 WELLS =           1.0000

            TOTAL IN =       8.8000E-02              TOTAL IN =           1.0000

          OUT:                                     OUT:
          ----                                     ----
             STORAGE =       5.2048E-14               STORAGE =       6.0521E-13
       CONSTANT HEAD =       8.8000E-02         CONSTANT HEAD =           1.0000
               WELLS =           0.0000                 WELLS =           0.0000

           TOTAL OUT =       8.8000E-02             TOTAL OUT =           1.0000

            IN - OUT =           0.0000              IN - OUT =           0.0000

 PERCENT DISCREPANCY =           0.00     PERCENT DISCREPANCY =           0.00






          TIME SUMMARY AT END OF TIME STEP   1 IN STRESS PERIOD   44
                    SECONDS     MINUTES      HOURS       DAYS        YEARS
                    -----------------------------------------------------------
   TIME STEP LENGTH  172.80      2.8800     4.80000E-02 2.00000E-03 5.47570E-06
 STRESS PERIOD TIME  172.80      2.8800     4.80000E-02 2.00000E-03 5.47570E-06
         TOTAL TIME  7603.2      126.72      2.1120     8.80000E-02 2.40931E-04
1
1
                            STRESS PERIOD NO.   45, LENGTH =  0.2000000E-02
                            -----------------------------------------------

                              NUMBER OF TIME STEPS =     1

                               MULTIPLIER FOR DELT =     1.000

                            INITIAL TIME STEP SIZE =  0.2000000E-02

 WELL NO.  LAYER   ROW   COL   STRESS RATE         
 --------------------------------------------------
      1      1      1      1       1.000    

      1 WELL
 
 SOLVING FOR HEAD 

 OUTPUT CONTROL FOR STRESS PERIOD   45   TIME STEP   1
    SAVE HEAD FOR ALL LAYERS
    SAVE BUDGET
 UBDSV1 SAVING "         STORAGE" ON UNIT  31 AT TIME STEP  1, STRESS PERIOD  45
 UBDSV2 SAVING "   CONSTANT HEAD" ON UNIT  31 AT TIME STEP  1, STRESS PERIOD  45
 UBDSV1 SAVING "FLOW RIGHT FACE " ON UNIT  31 AT TIME STEP  1, STRESS PERIOD  45
 UBDSV4 SAVING "           WELLS" ON UNIT  31 AT TIME STEP  1, STRESS PERIOD  45

 SAVING SATURATED THICKNESS AND FLOW TERMS ON UNIT  333 FOR MT3DMS
 BY THE LINK-MT3DMS PACKAGE V6.3 AT TIME STEP    1, STRESS PERIOD   45


 HEAD WILL BE SAVED ON UNIT   30 AT END OF TIME STEP   1, STRESS PERIOD   45
1
  VOLUMETRIC BUDGET FOR ENTIRE MODEL AT END OF TIME STEP  1 IN STRESS PERIOD  45
  ------------------------------------------------------------------------------

     CUMULATIVE VOLUMES      L**3       RATES FOR THIS TIME STEP      L**3/T
     ------------------                 ------------------------

           IN:                                      IN:
           ---                                      ---
             STORAGE =       5.1037E-14               STORAGE =       5.7997E-13
       CONSTANT HEAD =           0.0000         CONSTANT HEAD =           0.0000
               WELLS =       9.0000E-02                 WELLS =           1.0000

            TOTAL IN =       9.0000E-02              TOTAL IN =           1.0000

          OUT:                                     OUT:
          ----                                     ----
             STORAGE =       5.3259E-14               STORAGE =       6.0521E-13
       CONSTANT HEAD =       9.0000E-02         CONSTANT HEAD =           1.0000
               WELLS =           0.0000                 WELLS =           0.0000

           TOTAL OUT =       9.0000E-02             TOTAL OUT =           1.0000

            IN - OUT =           0.0000              IN - OUT =           0.0000

 PERCENT DISCREPANCY =           0.00     PERCENT DISCREPANCY =           0.00






          TIME SUMMARY AT END OF TIME STEP   1 IN STRESS PERIOD   45
                    SECONDS     MINUTES      HOURS       DAYS        YEARS
                    -----------------------------------------------------------
   TIME STEP LENGTH  172.80      2.8800     4.80000E-02 2.00000E-03 5.47570E-06
 STRESS PERIOD TIME  172.80      2.8800     4.80000E-02 2.00000E-03 5.47570E-06
         TOTAL TIME  7776.0      129.60      2.1600     9.00000E-02 2.46406E-04
1
1
                            STRESS PERIOD NO.   46, LENGTH =  0.2000000E-02
                            -----------------------------------------------

                              NUMBER OF TIME STEPS =     1

                               MULTIPLIER FOR DELT =     1.000

                            INITIAL TIME STEP SIZE =  0.2000000E-02

 WELL NO.  LAYER   ROW   COL   STRESS RATE         
 --------------------------------------------------
      1      1      1      1       1.000    

      1 WELL
 
 SOLVING FOR HEAD 

 OUTPUT CONTROL FOR STRESS PERIOD   46   TIME STEP   1
    SAVE HEAD FOR ALL LAYERS
    SAVE BUDGET
 UBDSV1 SAVING "         STORAGE" ON UNIT  31 AT TIME STEP  1, STRESS PERIOD  46
 UBDSV2 SAVING "   CONSTANT HEAD" ON UNIT  31 AT TIME STEP  1, STRESS PERIOD  46
 UBDSV1 SAVING "FLOW RIGHT FACE " ON UNIT  31 AT TIME STEP  1, STRESS PERIOD  46
 UBDSV4 SAVING "           WELLS" ON UNIT  31 AT TIME STEP  1, STRESS PERIOD  46

 SAVING SATURATED THICKNESS AND FLOW TERMS ON UNIT  333 FOR MT3DMS
 BY THE LINK-MT3DMS PACKAGE V6.3 AT TIME STEP    1, STRESS PERIOD   46


 HEAD WILL BE SAVED ON UNIT   30 AT END OF TIME STEP   1, STRESS PERIOD   46
1
  VOLUMETRIC BUDGET FOR ENTIRE MODEL AT END OF TIME STEP  1 IN STRESS PERIOD  46
  ------------------------------------------------------------------------------

     CUMULATIVE VOLUMES      L**3       RATES FOR THIS TIME STEP      L**3/T
     ------------------                 ------------------------

           IN:                                      IN:
           ---                                      ---
             STORAGE =       5.2197E-14               STORAGE =       5.7997E-13
       CONSTANT HEAD =           0.0000         CONSTANT HEAD =           0.0000
               WELLS =       9.2000E-02                 WELLS =           1.0000

            TOTAL IN =       9.2000E-02              TOTAL IN =           1.0000

          OUT:                                     OUT:
          ----                                     ----
             STORAGE =       5.4469E-14               STORAGE =       6.0521E-13
       CONSTANT HEAD =       9.2000E-02         CONSTANT HEAD =           1.0000
               WELLS =           0.0000                 WELLS =           0.0000

           TOTAL OUT =       9.2000E-02             TOTAL OUT =           1.0000

            IN - OUT =           0.0000              IN - OUT =           0.0000

 PERCENT DISCREPANCY =           0.00     PERCENT DISCREPANCY =           0.00






          TIME SUMMARY AT END OF TIME STEP   1 IN STRESS PERIOD   46
                    SECONDS     MINUTES      HOURS       DAYS        YEARS
                    -----------------------------------------------------------
   TIME STEP LENGTH  172.80      2.8800     4.80000E-02 2.00000E-03 5.47570E-06
 STRESS PERIOD TIME  172.80      2.8800     4.80000E-02 2.00000E-03 5.47570E-06
         TOTAL TIME  7948.8      132.48      2.2080     9.20000E-02 2.51882E-04
1
1
                            STRESS PERIOD NO.   47, LENGTH =  0.2000000E-02
                            -----------------------------------------------

                              NUMBER OF TIME STEPS =     1

                               MULTIPLIER FOR DELT =     1.000

                            INITIAL TIME STEP SIZE =  0.2000000E-02

 WELL NO.  LAYER   ROW   COL   STRESS RATE         
 --------------------------------------------------
      1      1      1      1       1.000    

      1 WELL
 
 SOLVING FOR HEAD 

 OUTPUT CONTROL FOR STRESS PERIOD   47   TIME STEP   1
    SAVE HEAD FOR ALL LAYERS
    SAVE BUDGET
 UBDSV1 SAVING "         STORAGE" ON UNIT  31 AT TIME STEP  1, STRESS PERIOD  47
 UBDSV2 SAVING "   CONSTANT HEAD" ON UNIT  31 AT TIME STEP  1, STRESS PERIOD  47
 UBDSV1 SAVING "FLOW RIGHT FACE " ON UNIT  31 AT TIME STEP  1, STRESS PERIOD  47
 UBDSV4 SAVING "           WELLS" ON UNIT  31 AT TIME STEP  1, STRESS PERIOD  47

 SAVING SATURATED THICKNESS AND FLOW TERMS ON UNIT  333 FOR MT3DMS
 BY THE LINK-MT3DMS PACKAGE V6.3 AT TIME STEP    1, STRESS PERIOD   47


 HEAD WILL BE SAVED ON UNIT   30 AT END OF TIME STEP   1, STRESS PERIOD   47
1
  VOLUMETRIC BUDGET FOR ENTIRE MODEL AT END OF TIME STEP  1 IN STRESS PERIOD  47
  ------------------------------------------------------------------------------

     CUMULATIVE VOLUMES      L**3       RATES FOR THIS TIME STEP      L**3/T
     ------------------                 ------------------------

           IN:                                      IN:
           ---                                      ---
             STORAGE =       5.3357E-14               STORAGE =       5.7997E-13
       CONSTANT HEAD =           0.0000         CONSTANT HEAD =           0.0000
               WELLS =       9.4000E-02                 WELLS =           1.0000

            TOTAL IN =       9.4000E-02              TOTAL IN =           1.0000

          OUT:                                     OUT:
          ----                                     ----
             STORAGE =       5.5680E-14               STORAGE =       6.0521E-13
       CONSTANT HEAD =       9.4000E-02         CONSTANT HEAD =           1.0000
               WELLS =           0.0000                 WELLS =           0.0000

           TOTAL OUT =       9.4000E-02             TOTAL OUT =           1.0000

            IN - OUT =           0.0000              IN - OUT =           0.0000

 PERCENT DISCREPANCY =           0.00     PERCENT DISCREPANCY =           0.00






          TIME SUMMARY AT END OF TIME STEP   1 IN STRESS PERIOD   47
                    SECONDS     MINUTES      HOURS       DAYS        YEARS
                    -----------------------------------------------------------
   TIME STEP LENGTH  172.80      2.8800     4.80000E-02 2.00000E-03 5.47570E-06
 STRESS PERIOD TIME  172.80      2.8800     4.80000E-02 2.00000E-03 5.47570E-06
         TOTAL TIME  8121.6      135.36      2.2560     9.40000E-02 2.57358E-04
1
1
                            STRESS PERIOD NO.   48, LENGTH =  0.2000000E-02
                            -----------------------------------------------

                              NUMBER OF TIME STEPS =     1

                               MULTIPLIER FOR DELT =     1.000

                            INITIAL TIME STEP SIZE =  0.2000000E-02

 WELL NO.  LAYER   ROW   COL   STRESS RATE         
 --------------------------------------------------
      1      1      1      1       1.000    

      1 WELL
 
 SOLVING FOR HEAD 

 OUTPUT CONTROL FOR STRESS PERIOD   48   TIME STEP   1
    SAVE HEAD FOR ALL LAYERS
    SAVE BUDGET
 UBDSV1 SAVING "         STORAGE" ON UNIT  31 AT TIME STEP  1, STRESS PERIOD  48
 UBDSV2 SAVING "   CONSTANT HEAD" ON UNIT  31 AT TIME STEP  1, STRESS PERIOD  48
 UBDSV1 SAVING "FLOW RIGHT FACE " ON UNIT  31 AT TIME STEP  1, STRESS PERIOD  48
 UBDSV4 SAVING "           WELLS" ON UNIT  31 AT TIME STEP  1, STRESS PERIOD  48

 SAVING SATURATED THICKNESS AND FLOW TERMS ON UNIT  333 FOR MT3DMS
 BY THE LINK-MT3DMS PACKAGE V6.3 AT TIME STEP    1, STRESS PERIOD   48


 HEAD WILL BE SAVED ON UNIT   30 AT END OF TIME STEP   1, STRESS PERIOD   48
1
  VOLUMETRIC BUDGET FOR ENTIRE MODEL AT END OF TIME STEP  1 IN STRESS PERIOD  48
  ------------------------------------------------------------------------------

     CUMULATIVE VOLUMES      L**3       RATES FOR THIS TIME STEP      L**3/T
     ------------------                 ------------------------

           IN:                                      IN:
           ---                                      ---
             STORAGE =       5.4517E-14               STORAGE =       5.7997E-13
       CONSTANT HEAD =           0.0000         CONSTANT HEAD =           0.0000
               WELLS =       9.6000E-02                 WELLS =           1.0000

            TOTAL IN =       9.6000E-02              TOTAL IN =           1.0000

          OUT:                                     OUT:
          ----                                     ----
             STORAGE =       5.6890E-14               STORAGE =       6.0521E-13
       CONSTANT HEAD =       9.6000E-02         CONSTANT HEAD =           1.0000
               WELLS =           0.0000                 WELLS =           0.0000

           TOTAL OUT =       9.6000E-02             TOTAL OUT =           1.0000

            IN - OUT =           0.0000              IN - OUT =           0.0000

 PERCENT DISCREPANCY =           0.00     PERCENT DISCREPANCY =           0.00






          TIME SUMMARY AT END OF TIME STEP   1 IN STRESS PERIOD   48
                    SECONDS     MINUTES      HOURS       DAYS        YEARS
                    -----------------------------------------------------------
   TIME STEP LENGTH  172.80      2.8800     4.80000E-02 2.00000E-03 5.47570E-06
 STRESS PERIOD TIME  172.80      2.8800     4.80000E-02 2.00000E-03 5.47570E-06
         TOTAL TIME  8294.4      138.24      2.3040     9.59999E-02 2.62834E-04
1
1
                            STRESS PERIOD NO.   49, LENGTH =  0.2000000E-02
                            -----------------------------------------------

                              NUMBER OF TIME STEPS =     1

                               MULTIPLIER FOR DELT =     1.000

                            INITIAL TIME STEP SIZE =  0.2000000E-02

 WELL NO.  LAYER   ROW   COL   STRESS RATE         
 --------------------------------------------------
      1      1      1      1       1.000    

      1 WELL
 
 SOLVING FOR HEAD 

 OUTPUT CONTROL FOR STRESS PERIOD   49   TIME STEP   1
    SAVE HEAD FOR ALL LAYERS
    SAVE BUDGET
 UBDSV1 SAVING "         STORAGE" ON UNIT  31 AT TIME STEP  1, STRESS PERIOD  49
 UBDSV2 SAVING "   CONSTANT HEAD" ON UNIT  31 AT TIME STEP  1, STRESS PERIOD  49
 UBDSV1 SAVING "FLOW RIGHT FACE " ON UNIT  31 AT TIME STEP  1, STRESS PERIOD  49
 UBDSV4 SAVING "           WELLS" ON UNIT  31 AT TIME STEP  1, STRESS PERIOD  49

 SAVING SATURATED THICKNESS AND FLOW TERMS ON UNIT  333 FOR MT3DMS
 BY THE LINK-MT3DMS PACKAGE V6.3 AT TIME STEP    1, STRESS PERIOD   49


 HEAD WILL BE SAVED ON UNIT   30 AT END OF TIME STEP   1, STRESS PERIOD   49
1
  VOLUMETRIC BUDGET FOR ENTIRE MODEL AT END OF TIME STEP  1 IN STRESS PERIOD  49
  ------------------------------------------------------------------------------

     CUMULATIVE VOLUMES      L**3       RATES FOR THIS TIME STEP      L**3/T
     ------------------                 ------------------------

           IN:                                      IN:
           ---                                      ---
             STORAGE =       5.5677E-14               STORAGE =       5.7997E-13
       CONSTANT HEAD =           0.0000         CONSTANT HEAD =           0.0000
               WELLS =       9.8000E-02                 WELLS =           1.0000

            TOTAL IN =       9.8000E-02              TOTAL IN =           1.0000

          OUT:                                     OUT:
          ----                                     ----
             STORAGE =       5.8101E-14               STORAGE =       6.0521E-13
       CONSTANT HEAD =       9.8000E-02         CONSTANT HEAD =           1.0000
               WELLS =           0.0000                 WELLS =           0.0000

           TOTAL OUT =       9.8000E-02             TOTAL OUT =           1.0000

            IN - OUT =           0.0000              IN - OUT =           0.0000

 PERCENT DISCREPANCY =           0.00     PERCENT DISCREPANCY =           0.00






          TIME SUMMARY AT END OF TIME STEP   1 IN STRESS PERIOD   49
                    SECONDS     MINUTES      HOURS       DAYS        YEARS
                    -----------------------------------------------------------
   TIME STEP LENGTH  172.80      2.8800     4.80000E-02 2.00000E-03 5.47570E-06
 STRESS PERIOD TIME  172.80      2.8800     4.80000E-02 2.00000E-03 5.47570E-06
         TOTAL TIME  8467.2      141.12      2.3520     9.79999E-02 2.68309E-04
1
1
                            STRESS PERIOD NO.   50, LENGTH =  0.2000000E-02
                            -----------------------------------------------

                              NUMBER OF TIME STEPS =     1

                               MULTIPLIER FOR DELT =     1.000

                            INITIAL TIME STEP SIZE =  0.2000000E-02

 WELL NO.  LAYER   ROW   COL   STRESS RATE         
 --------------------------------------------------
      1      1      1      1       1.000    

      1 WELL
 
 SOLVING FOR HEAD 

 OUTPUT CONTROL FOR STRESS PERIOD   50   TIME STEP   1
    SAVE HEAD FOR ALL LAYERS
    SAVE BUDGET
 UBDSV1 SAVING "         STORAGE" ON UNIT  31 AT TIME STEP  1, STRESS PERIOD  50
 UBDSV2 SAVING "   CONSTANT HEAD" ON UNIT  31 AT TIME STEP  1, STRESS PERIOD  50
 UBDSV1 SAVING "FLOW RIGHT FACE " ON UNIT  31 AT TIME STEP  1, STRESS PERIOD  50
 UBDSV4 SAVING "           WELLS" ON UNIT  31 AT TIME STEP  1, STRESS PERIOD  50

 SAVING SATURATED THICKNESS AND FLOW TERMS ON UNIT  333 FOR MT3DMS
 BY THE LINK-MT3DMS PACKAGE V6.3 AT TIME STEP    1, STRESS PERIOD   50


 HEAD WILL BE SAVED ON UNIT   30 AT END OF TIME STEP   1, STRESS PERIOD   50
1
  VOLUMETRIC BUDGET FOR ENTIRE MODEL AT END OF TIME STEP  1 IN STRESS PERIOD  50
  ------------------------------------------------------------------------------

     CUMULATIVE VOLUMES      L**3       RATES FOR THIS TIME STEP      L**3/T
     ------------------                 ------------------------

           IN:                                      IN:
           ---                                      ---
             STORAGE =       5.6837E-14               STORAGE =       5.7997E-13
       CONSTANT HEAD =           0.0000         CONSTANT HEAD =           0.0000
               WELLS =       1.0000E-01                 WELLS =           1.0000

            TOTAL IN =       1.0000E-01              TOTAL IN =           1.0000

          OUT:                                     OUT:
          ----                                     ----
             STORAGE =       5.9311E-14               STORAGE =       6.0521E-13
       CONSTANT HEAD =       1.0000E-01         CONSTANT HEAD =           1.0000
               WELLS =           0.0000                 WELLS =           0.0000

           TOTAL OUT =       1.0000E-01             TOTAL OUT =           1.0000

            IN - OUT =           0.0000              IN - OUT =           0.0000

 PERCENT DISCREPANCY =           0.00     PERCENT DISCREPANCY =           0.00






          TIME SUMMARY AT END OF TIME STEP   1 IN STRESS PERIOD   50
                    SECONDS     MINUTES      HOURS       DAYS        YEARS
                    -----------------------------------------------------------
   TIME STEP LENGTH  172.80      2.8800     4.80000E-02 2.00000E-03 5.47570E-06
 STRESS PERIOD TIME  172.80      2.8800     4.80000E-02 2.00000E-03 5.47570E-06
         TOTAL TIME  8640.0      144.00      2.4000     0.10000     2.73785E-04
1
1
                            STRESS PERIOD NO.   51, LENGTH =  0.2000000E-02
                            -----------------------------------------------

                              NUMBER OF TIME STEPS =     1

                               MULTIPLIER FOR DELT =     1.000

                            INITIAL TIME STEP SIZE =  0.2000000E-02

 WELL NO.  LAYER   ROW   COL   STRESS RATE         
 --------------------------------------------------
      1      1      1      1       1.000    

      1 WELL
 
 SOLVING FOR HEAD 

 OUTPUT CONTROL FOR STRESS PERIOD   51   TIME STEP   1
    SAVE HEAD FOR ALL LAYERS
    SAVE BUDGET
 UBDSV1 SAVING "         STORAGE" ON UNIT  31 AT TIME STEP  1, STRESS PERIOD  51
 UBDSV2 SAVING "   CONSTANT HEAD" ON UNIT  31 AT TIME STEP  1, STRESS PERIOD  51
 UBDSV1 SAVING "FLOW RIGHT FACE " ON UNIT  31 AT TIME STEP  1, STRESS PERIOD  51
 UBDSV4 SAVING "           WELLS" ON UNIT  31 AT TIME STEP  1, STRESS PERIOD  51

 SAVING SATURATED THICKNESS AND FLOW TERMS ON UNIT  333 FOR MT3DMS
 BY THE LINK-MT3DMS PACKAGE V6.3 AT TIME STEP    1, STRESS PERIOD   51


 HEAD WILL BE SAVED ON UNIT   30 AT END OF TIME STEP   1, STRESS PERIOD   51
1
  VOLUMETRIC BUDGET FOR ENTIRE MODEL AT END OF TIME STEP  1 IN STRESS PERIOD  51
  ------------------------------------------------------------------------------

     CUMULATIVE VOLUMES      L**3       RATES FOR THIS TIME STEP      L**3/T
     ------------------                 ------------------------

           IN:                                      IN:
           ---                                      ---
             STORAGE =       5.7997E-14               STORAGE =       5.7997E-13
       CONSTANT HEAD =           0.0000         CONSTANT HEAD =           0.0000
               WELLS =           0.1020                 WELLS =           1.0000

            TOTAL IN =           0.1020              TOTAL IN =           1.0000

          OUT:                                     OUT:
          ----                                     ----
             STORAGE =       6.0521E-14               STORAGE =       6.0521E-13
       CONSTANT HEAD =           0.1020         CONSTANT HEAD =           1.0000
               WELLS =           0.0000                 WELLS =           0.0000

           TOTAL OUT =           0.1020             TOTAL OUT =           1.0000

            IN - OUT =           0.0000              IN - OUT =           0.0000

 PERCENT DISCREPANCY =           0.00     PERCENT DISCREPANCY =           0.00






          TIME SUMMARY AT END OF TIME STEP   1 IN STRESS PERIOD   51
                    SECONDS     MINUTES      HOURS       DAYS        YEARS
                    -----------------------------------------------------------
   TIME STEP LENGTH  172.80      2.8800     4.80000E-02 2.00000E-03 5.47570E-06
 STRESS PERIOD TIME  172.80      2.8800     4.80000E-02 2.00000E-03 5.47570E-06
         TOTAL TIME  8812.8      146.88      2.4480     0.10200     2.79261E-04
1
1
                            STRESS PERIOD NO.   52, LENGTH =  0.2000000E-02
                            -----------------------------------------------

                              NUMBER OF TIME STEPS =     1

                               MULTIPLIER FOR DELT =     1.000

                            INITIAL TIME STEP SIZE =  0.2000000E-02

 WELL NO.  LAYER   ROW   COL   STRESS RATE         
 --------------------------------------------------
      1      1      1      1       1.000    

      1 WELL
 
 SOLVING FOR HEAD 

 OUTPUT CONTROL FOR STRESS PERIOD   52   TIME STEP   1
    SAVE HEAD FOR ALL LAYERS
    SAVE BUDGET
 UBDSV1 SAVING "         STORAGE" ON UNIT  31 AT TIME STEP  1, STRESS PERIOD  52
 UBDSV2 SAVING "   CONSTANT HEAD" ON UNIT  31 AT TIME STEP  1, STRESS PERIOD  52
 UBDSV1 SAVING "FLOW RIGHT FACE " ON UNIT  31 AT TIME STEP  1, STRESS PERIOD  52
 UBDSV4 SAVING "           WELLS" ON UNIT  31 AT TIME STEP  1, STRESS PERIOD  52

 SAVING SATURATED THICKNESS AND FLOW TERMS ON UNIT  333 FOR MT3DMS
 BY THE LINK-MT3DMS PACKAGE V6.3 AT TIME STEP    1, STRESS PERIOD   52


 HEAD WILL BE SAVED ON UNIT   30 AT END OF TIME STEP   1, STRESS PERIOD   52
1
  VOLUMETRIC BUDGET FOR ENTIRE MODEL AT END OF TIME STEP  1 IN STRESS PERIOD  52
  ------------------------------------------------------------------------------

     CUMULATIVE VOLUMES      L**3       RATES FOR THIS TIME STEP      L**3/T
     ------------------                 ------------------------

           IN:                                      IN:
           ---                                      ---
             STORAGE =       5.9157E-14               STORAGE =       5.7997E-13
       CONSTANT HEAD =           0.0000         CONSTANT HEAD =           0.0000
               WELLS =           0.1040                 WELLS =           1.0000

            TOTAL IN =           0.1040              TOTAL IN =           1.0000

          OUT:                                     OUT:
          ----                                     ----
             STORAGE =       6.1732E-14               STORAGE =       6.0521E-13
       CONSTANT HEAD =           0.1040         CONSTANT HEAD =           1.0000
               WELLS =           0.0000                 WELLS =           0.0000

           TOTAL OUT =           0.1040             TOTAL OUT =           1.0000

            IN - OUT =           0.0000              IN - OUT =           0.0000

 PERCENT DISCREPANCY =           0.00     PERCENT DISCREPANCY =           0.00






          TIME SUMMARY AT END OF TIME STEP   1 IN STRESS PERIOD   52
                    SECONDS     MINUTES      HOURS       DAYS        YEARS
                    -----------------------------------------------------------
   TIME STEP LENGTH  172.80      2.8800     4.80000E-02 2.00000E-03 5.47570E-06
 STRESS PERIOD TIME  172.80      2.8800     4.80000E-02 2.00000E-03 5.47570E-06
         TOTAL TIME  8985.6      149.76      2.4960     0.10400     2.84736E-04
1
1
                            STRESS PERIOD NO.   53, LENGTH =  0.2000000E-02
                            -----------------------------------------------

                              NUMBER OF TIME STEPS =     1

                               MULTIPLIER FOR DELT =     1.000

                            INITIAL TIME STEP SIZE =  0.2000000E-02

 WELL NO.  LAYER   ROW   COL   STRESS RATE         
 --------------------------------------------------
      1      1      1      1       1.000    

      1 WELL
 
 SOLVING FOR HEAD 

 OUTPUT CONTROL FOR STRESS PERIOD   53   TIME STEP   1
    SAVE HEAD FOR ALL LAYERS
    SAVE BUDGET
 UBDSV1 SAVING "         STORAGE" ON UNIT  31 AT TIME STEP  1, STRESS PERIOD  53
 UBDSV2 SAVING "   CONSTANT HEAD" ON UNIT  31 AT TIME STEP  1, STRESS PERIOD  53
 UBDSV1 SAVING "FLOW RIGHT FACE " ON UNIT  31 AT TIME STEP  1, STRESS PERIOD  53
 UBDSV4 SAVING "           WELLS" ON UNIT  31 AT TIME STEP  1, STRESS PERIOD  53

 SAVING SATURATED THICKNESS AND FLOW TERMS ON UNIT  333 FOR MT3DMS
 BY THE LINK-MT3DMS PACKAGE V6.3 AT TIME STEP    1, STRESS PERIOD   53


 HEAD WILL BE SAVED ON UNIT   30 AT END OF TIME STEP   1, STRESS PERIOD   53
1
  VOLUMETRIC BUDGET FOR ENTIRE MODEL AT END OF TIME STEP  1 IN STRESS PERIOD  53
  ------------------------------------------------------------------------------

     CUMULATIVE VOLUMES      L**3       RATES FOR THIS TIME STEP      L**3/T
     ------------------                 ------------------------

           IN:                                      IN:
           ---                                      ---
             STORAGE =       6.0317E-14               STORAGE =       5.7997E-13
       CONSTANT HEAD =           0.0000         CONSTANT HEAD =           0.0000
               WELLS =           0.1060                 WELLS =           1.0000

            TOTAL IN =           0.1060              TOTAL IN =           1.0000

          OUT:                                     OUT:
          ----                                     ----
             STORAGE =       6.2942E-14               STORAGE =       6.0521E-13
       CONSTANT HEAD =           0.1060         CONSTANT HEAD =           1.0000
               WELLS =           0.0000                 WELLS =           0.0000

           TOTAL OUT =           0.1060             TOTAL OUT =           1.0000

            IN - OUT =           0.0000              IN - OUT =           0.0000

 PERCENT DISCREPANCY =           0.00     PERCENT DISCREPANCY =           0.00






          TIME SUMMARY AT END OF TIME STEP   1 IN STRESS PERIOD   53
                    SECONDS     MINUTES      HOURS       DAYS        YEARS
                    -----------------------------------------------------------
   TIME STEP LENGTH  172.80      2.8800     4.80000E-02 2.00000E-03 5.47570E-06
 STRESS PERIOD TIME  172.80      2.8800     4.80000E-02 2.00000E-03 5.47570E-06
         TOTAL TIME  9158.4      152.64      2.5440     0.10600     2.90212E-04
1
1
                            STRESS PERIOD NO.   54, LENGTH =  0.2000000E-02
                            -----------------------------------------------

                              NUMBER OF TIME STEPS =     1

                               MULTIPLIER FOR DELT =     1.000

                            INITIAL TIME STEP SIZE =  0.2000000E-02

 WELL NO.  LAYER   ROW   COL   STRESS RATE         
 --------------------------------------------------
      1      1      1      1       1.000    

      1 WELL
 
 SOLVING FOR HEAD 

 OUTPUT CONTROL FOR STRESS PERIOD   54   TIME STEP   1
    SAVE HEAD FOR ALL LAYERS
    SAVE BUDGET
 UBDSV1 SAVING "         STORAGE" ON UNIT  31 AT TIME STEP  1, STRESS PERIOD  54
 UBDSV2 SAVING "   CONSTANT HEAD" ON UNIT  31 AT TIME STEP  1, STRESS PERIOD  54
 UBDSV1 SAVING "FLOW RIGHT FACE " ON UNIT  31 AT TIME STEP  1, STRESS PERIOD  54
 UBDSV4 SAVING "           WELLS" ON UNIT  31 AT TIME STEP  1, STRESS PERIOD  54

 SAVING SATURATED THICKNESS AND FLOW TERMS ON UNIT  333 FOR MT3DMS
 BY THE LINK-MT3DMS PACKAGE V6.3 AT TIME STEP    1, STRESS PERIOD   54


 HEAD WILL BE SAVED ON UNIT   30 AT END OF TIME STEP   1, STRESS PERIOD   54
1
  VOLUMETRIC BUDGET FOR ENTIRE MODEL AT END OF TIME STEP  1 IN STRESS PERIOD  54
  ------------------------------------------------------------------------------

     CUMULATIVE VOLUMES      L**3       RATES FOR THIS TIME STEP      L**3/T
     ------------------                 ------------------------

           IN:                                      IN:
           ---                                      ---
             STORAGE =       6.1477E-14               STORAGE =       5.7997E-13
       CONSTANT HEAD =           0.0000         CONSTANT HEAD =           0.0000
               WELLS =           0.1080                 WELLS =           1.0000

            TOTAL IN =           0.1080              TOTAL IN =           1.0000

          OUT:                                     OUT:
          ----                                     ----
             STORAGE =       6.4153E-14               STORAGE =       6.0521E-13
       CONSTANT HEAD =           0.1080         CONSTANT HEAD =           1.0000
               WELLS =           0.0000                 WELLS =           0.0000

           TOTAL OUT =           0.1080             TOTAL OUT =           1.0000

            IN - OUT =           0.0000              IN - OUT =           0.0000

 PERCENT DISCREPANCY =           0.00     PERCENT DISCREPANCY =           0.00






          TIME SUMMARY AT END OF TIME STEP   1 IN STRESS PERIOD   54
                    SECONDS     MINUTES      HOURS       DAYS        YEARS
                    -----------------------------------------------------------
   TIME STEP LENGTH  172.80      2.8800     4.80000E-02 2.00000E-03 5.47570E-06
 STRESS PERIOD TIME  172.80      2.8800     4.80000E-02 2.00000E-03 5.47570E-06
         TOTAL TIME  9331.2      155.52      2.5920     0.10800     2.95688E-04
1
1
                            STRESS PERIOD NO.   55, LENGTH =  0.2000000E-02
                            -----------------------------------------------

                              NUMBER OF TIME STEPS =     1

                               MULTIPLIER FOR DELT =     1.000

                            INITIAL TIME STEP SIZE =  0.2000000E-02

 WELL NO.  LAYER   ROW   COL   STRESS RATE         
 --------------------------------------------------
      1      1      1      1       1.000    

      1 WELL
 
 SOLVING FOR HEAD 

 OUTPUT CONTROL FOR STRESS PERIOD   55   TIME STEP   1
    SAVE HEAD FOR ALL LAYERS
    SAVE BUDGET
 UBDSV1 SAVING "         STORAGE" ON UNIT  31 AT TIME STEP  1, STRESS PERIOD  55
 UBDSV2 SAVING "   CONSTANT HEAD" ON UNIT  31 AT TIME STEP  1, STRESS PERIOD  55
 UBDSV1 SAVING "FLOW RIGHT FACE " ON UNIT  31 AT TIME STEP  1, STRESS PERIOD  55
 UBDSV4 SAVING "           WELLS" ON UNIT  31 AT TIME STEP  1, STRESS PERIOD  55

 SAVING SATURATED THICKNESS AND FLOW TERMS ON UNIT  333 FOR MT3DMS
 BY THE LINK-MT3DMS PACKAGE V6.3 AT TIME STEP    1, STRESS PERIOD   55


 HEAD WILL BE SAVED ON UNIT   30 AT END OF TIME STEP   1, STRESS PERIOD   55
1
  VOLUMETRIC BUDGET FOR ENTIRE MODEL AT END OF TIME STEP  1 IN STRESS PERIOD  55
  ------------------------------------------------------------------------------

     CUMULATIVE VOLUMES      L**3       RATES FOR THIS TIME STEP      L**3/T
     ------------------                 ------------------------

           IN:                                      IN:
           ---                                      ---
             STORAGE =       6.2636E-14               STORAGE =       5.7997E-13
       CONSTANT HEAD =           0.0000         CONSTANT HEAD =           0.0000
               WELLS =           0.1100                 WELLS =           1.0000

            TOTAL IN =           0.1100              TOTAL IN =           1.0000

          OUT:                                     OUT:
          ----                                     ----
             STORAGE =       6.5363E-14               STORAGE =       6.0521E-13
       CONSTANT HEAD =           0.1100         CONSTANT HEAD =           1.0000
               WELLS =           0.0000                 WELLS =           0.0000

           TOTAL OUT =           0.1100             TOTAL OUT =           1.0000

            IN - OUT =           0.0000              IN - OUT =           0.0000

 PERCENT DISCREPANCY =           0.00     PERCENT DISCREPANCY =           0.00






          TIME SUMMARY AT END OF TIME STEP   1 IN STRESS PERIOD   55
                    SECONDS     MINUTES      HOURS       DAYS        YEARS
                    -----------------------------------------------------------
   TIME STEP LENGTH  172.80      2.8800     4.80000E-02 2.00000E-03 5.47570E-06
 STRESS PERIOD TIME  172.80      2.8800     4.80000E-02 2.00000E-03 5.47570E-06
         TOTAL TIME  9504.0      158.40      2.6400     0.11000     3.01163E-04
1
1
                            STRESS PERIOD NO.   56, LENGTH =  0.2000000E-02
                            -----------------------------------------------

                              NUMBER OF TIME STEPS =     1

                               MULTIPLIER FOR DELT =     1.000

                            INITIAL TIME STEP SIZE =  0.2000000E-02

 WELL NO.  LAYER   ROW   COL   STRESS RATE         
 --------------------------------------------------
      1      1      1      1       1.000    

      1 WELL
 
 SOLVING FOR HEAD 

 OUTPUT CONTROL FOR STRESS PERIOD   56   TIME STEP   1
    SAVE HEAD FOR ALL LAYERS
    SAVE BUDGET
 UBDSV1 SAVING "         STORAGE" ON UNIT  31 AT TIME STEP  1, STRESS PERIOD  56
 UBDSV2 SAVING "   CONSTANT HEAD" ON UNIT  31 AT TIME STEP  1, STRESS PERIOD  56
 UBDSV1 SAVING "FLOW RIGHT FACE " ON UNIT  31 AT TIME STEP  1, STRESS PERIOD  56
 UBDSV4 SAVING "           WELLS" ON UNIT  31 AT TIME STEP  1, STRESS PERIOD  56

 SAVING SATURATED THICKNESS AND FLOW TERMS ON UNIT  333 FOR MT3DMS
 BY THE LINK-MT3DMS PACKAGE V6.3 AT TIME STEP    1, STRESS PERIOD   56


 HEAD WILL BE SAVED ON UNIT   30 AT END OF TIME STEP   1, STRESS PERIOD   56
1
  VOLUMETRIC BUDGET FOR ENTIRE MODEL AT END OF TIME STEP  1 IN STRESS PERIOD  56
  ------------------------------------------------------------------------------

     CUMULATIVE VOLUMES      L**3       RATES FOR THIS TIME STEP      L**3/T
     ------------------                 ------------------------

           IN:                                      IN:
           ---                                      ---
             STORAGE =       6.3796E-14               STORAGE =       5.7997E-13
       CONSTANT HEAD =           0.0000         CONSTANT HEAD =           0.0000
               WELLS =           0.1120                 WELLS =           1.0000

            TOTAL IN =           0.1120              TOTAL IN =           1.0000

          OUT:                                     OUT:
          ----                                     ----
             STORAGE =       6.6574E-14               STORAGE =       6.0521E-13
       CONSTANT HEAD =           0.1120         CONSTANT HEAD =           1.0000
               WELLS =           0.0000                 WELLS =           0.0000

           TOTAL OUT =           0.1120             TOTAL OUT =           1.0000

            IN - OUT =           0.0000              IN - OUT =           0.0000

 PERCENT DISCREPANCY =           0.00     PERCENT DISCREPANCY =           0.00






          TIME SUMMARY AT END OF TIME STEP   1 IN STRESS PERIOD   56
                    SECONDS     MINUTES      HOURS       DAYS        YEARS
                    -----------------------------------------------------------
   TIME STEP LENGTH  172.80      2.8800     4.80000E-02 2.00000E-03 5.47570E-06
 STRESS PERIOD TIME  172.80      2.8800     4.80000E-02 2.00000E-03 5.47570E-06
         TOTAL TIME  9676.8      161.28      2.6880     0.11200     3.06639E-04
1
1
                            STRESS PERIOD NO.   57, LENGTH =  0.2000000E-02
                            -----------------------------------------------

                              NUMBER OF TIME STEPS =     1

                               MULTIPLIER FOR DELT =     1.000

                            INITIAL TIME STEP SIZE =  0.2000000E-02

 WELL NO.  LAYER   ROW   COL   STRESS RATE         
 --------------------------------------------------
      1      1      1      1       1.000    

      1 WELL
 
 SOLVING FOR HEAD 

 OUTPUT CONTROL FOR STRESS PERIOD   57   TIME STEP   1
    SAVE HEAD FOR ALL LAYERS
    SAVE BUDGET
 UBDSV1 SAVING "         STORAGE" ON UNIT  31 AT TIME STEP  1, STRESS PERIOD  57
 UBDSV2 SAVING "   CONSTANT HEAD" ON UNIT  31 AT TIME STEP  1, STRESS PERIOD  57
 UBDSV1 SAVING "FLOW RIGHT FACE " ON UNIT  31 AT TIME STEP  1, STRESS PERIOD  57
 UBDSV4 SAVING "           WELLS" ON UNIT  31 AT TIME STEP  1, STRESS PERIOD  57

 SAVING SATURATED THICKNESS AND FLOW TERMS ON UNIT  333 FOR MT3DMS
 BY THE LINK-MT3DMS PACKAGE V6.3 AT TIME STEP    1, STRESS PERIOD   57


 HEAD WILL BE SAVED ON UNIT   30 AT END OF TIME STEP   1, STRESS PERIOD   57
1
  VOLUMETRIC BUDGET FOR ENTIRE MODEL AT END OF TIME STEP  1 IN STRESS PERIOD  57
  ------------------------------------------------------------------------------

     CUMULATIVE VOLUMES      L**3       RATES FOR THIS TIME STEP      L**3/T
     ------------------                 ------------------------

           IN:                                      IN:
           ---                                      ---
             STORAGE =       6.4956E-14               STORAGE =       5.7997E-13
       CONSTANT HEAD =           0.0000         CONSTANT HEAD =           0.0000
               WELLS =           0.1140                 WELLS =           1.0000

            TOTAL IN =           0.1140              TOTAL IN =           1.0000

          OUT:                                     OUT:
          ----                                     ----
             STORAGE =       6.7784E-14               STORAGE =       6.0521E-13
       CONSTANT HEAD =           0.1140         CONSTANT HEAD =           1.0000
               WELLS =           0.0000                 WELLS =           0.0000

           TOTAL OUT =           0.1140             TOTAL OUT =           1.0000

            IN - OUT =           0.0000              IN - OUT =           0.0000

 PERCENT DISCREPANCY =           0.00     PERCENT DISCREPANCY =           0.00






          TIME SUMMARY AT END OF TIME STEP   1 IN STRESS PERIOD   57
                    SECONDS     MINUTES      HOURS       DAYS        YEARS
                    -----------------------------------------------------------
   TIME STEP LENGTH  172.80      2.8800     4.80000E-02 2.00000E-03 5.47570E-06
 STRESS PERIOD TIME  172.80      2.8800     4.80000E-02 2.00000E-03 5.47570E-06
         TOTAL TIME  9849.6      164.16      2.7360     0.11400     3.12115E-04
1
1
                            STRESS PERIOD NO.   58, LENGTH =  0.2000000E-02
                            -----------------------------------------------

                              NUMBER OF TIME STEPS =     1

                               MULTIPLIER FOR DELT =     1.000

                            INITIAL TIME STEP SIZE =  0.2000000E-02

 WELL NO.  LAYER   ROW   COL   STRESS RATE         
 --------------------------------------------------
      1      1      1      1       1.000    

      1 WELL
 
 SOLVING FOR HEAD 

 OUTPUT CONTROL FOR STRESS PERIOD   58   TIME STEP   1
    SAVE HEAD FOR ALL LAYERS
    SAVE BUDGET
 UBDSV1 SAVING "         STORAGE" ON UNIT  31 AT TIME STEP  1, STRESS PERIOD  58
 UBDSV2 SAVING "   CONSTANT HEAD" ON UNIT  31 AT TIME STEP  1, STRESS PERIOD  58
 UBDSV1 SAVING "FLOW RIGHT FACE " ON UNIT  31 AT TIME STEP  1, STRESS PERIOD  58
 UBDSV4 SAVING "           WELLS" ON UNIT  31 AT TIME STEP  1, STRESS PERIOD  58

 SAVING SATURATED THICKNESS AND FLOW TERMS ON UNIT  333 FOR MT3DMS
 BY THE LINK-MT3DMS PACKAGE V6.3 AT TIME STEP    1, STRESS PERIOD   58


 HEAD WILL BE SAVED ON UNIT   30 AT END OF TIME STEP   1, STRESS PERIOD   58
1
  VOLUMETRIC BUDGET FOR ENTIRE MODEL AT END OF TIME STEP  1 IN STRESS PERIOD  58
  ------------------------------------------------------------------------------

     CUMULATIVE VOLUMES      L**3       RATES FOR THIS TIME STEP      L**3/T
     ------------------                 ------------------------

           IN:                                      IN:
           ---                                      ---
             STORAGE =       6.6116E-14               STORAGE =       5.7997E-13
       CONSTANT HEAD =           0.0000         CONSTANT HEAD =           0.0000
               WELLS =           0.1160                 WELLS =           1.0000

            TOTAL IN =           0.1160              TOTAL IN =           1.0000

          OUT:                                     OUT:
          ----                                     ----
             STORAGE =       6.8994E-14               STORAGE =       6.0521E-13
       CONSTANT HEAD =           0.1160         CONSTANT HEAD =           1.0000
               WELLS =           0.0000                 WELLS =           0.0000

           TOTAL OUT =           0.1160             TOTAL OUT =           1.0000

            IN - OUT =           0.0000              IN - OUT =           0.0000

 PERCENT DISCREPANCY =           0.00     PERCENT DISCREPANCY =           0.00






          TIME SUMMARY AT END OF TIME STEP   1 IN STRESS PERIOD   58
                    SECONDS     MINUTES      HOURS       DAYS        YEARS
                    -----------------------------------------------------------
   TIME STEP LENGTH  172.80      2.8800     4.80000E-02 2.00000E-03 5.47570E-06
 STRESS PERIOD TIME  172.80      2.8800     4.80000E-02 2.00000E-03 5.47570E-06
         TOTAL TIME  10022.      167.04      2.7840     0.11600     3.17590E-04
1
1
                            STRESS PERIOD NO.   59, LENGTH =  0.2000000E-02
                            -----------------------------------------------

                              NUMBER OF TIME STEPS =     1

                               MULTIPLIER FOR DELT =     1.000

                            INITIAL TIME STEP SIZE =  0.2000000E-02

 WELL NO.  LAYER   ROW   COL   STRESS RATE         
 --------------------------------------------------
      1      1      1      1       1.000    

      1 WELL
 
 SOLVING FOR HEAD 

 OUTPUT CONTROL FOR STRESS PERIOD   59   TIME STEP   1
    SAVE HEAD FOR ALL LAYERS
    SAVE BUDGET
 UBDSV1 SAVING "         STORAGE" ON UNIT  31 AT TIME STEP  1, STRESS PERIOD  59
 UBDSV2 SAVING "   CONSTANT HEAD" ON UNIT  31 AT TIME STEP  1, STRESS PERIOD  59
 UBDSV1 SAVING "FLOW RIGHT FACE " ON UNIT  31 AT TIME STEP  1, STRESS PERIOD  59
 UBDSV4 SAVING "           WELLS" ON UNIT  31 AT TIME STEP  1, STRESS PERIOD  59

 SAVING SATURATED THICKNESS AND FLOW TERMS ON UNIT  333 FOR MT3DMS
 BY THE LINK-MT3DMS PACKAGE V6.3 AT TIME STEP    1, STRESS PERIOD   59


 HEAD WILL BE SAVED ON UNIT   30 AT END OF TIME STEP   1, STRESS PERIOD   59
1
  VOLUMETRIC BUDGET FOR ENTIRE MODEL AT END OF TIME STEP  1 IN STRESS PERIOD  59
  ------------------------------------------------------------------------------

     CUMULATIVE VOLUMES      L**3       RATES FOR THIS TIME STEP      L**3/T
     ------------------                 ------------------------

           IN:                                      IN:
           ---                                      ---
             STORAGE =       6.7276E-14               STORAGE =       5.7997E-13
       CONSTANT HEAD =           0.0000         CONSTANT HEAD =           0.0000
               WELLS =           0.1180                 WELLS =           1.0000

            TOTAL IN =           0.1180              TOTAL IN =           1.0000

          OUT:                                     OUT:
          ----                                     ----
             STORAGE =       7.0205E-14               STORAGE =       6.0521E-13
       CONSTANT HEAD =           0.1180         CONSTANT HEAD =           1.0000
               WELLS =           0.0000                 WELLS =           0.0000

           TOTAL OUT =           0.1180             TOTAL OUT =           1.0000

            IN - OUT =           0.0000              IN - OUT =           0.0000

 PERCENT DISCREPANCY =           0.00     PERCENT DISCREPANCY =           0.00






          TIME SUMMARY AT END OF TIME STEP   1 IN STRESS PERIOD   59
                    SECONDS     MINUTES      HOURS       DAYS        YEARS
                    -----------------------------------------------------------
   TIME STEP LENGTH  172.80      2.8800     4.80000E-02 2.00000E-03 5.47570E-06
 STRESS PERIOD TIME  172.80      2.8800     4.80000E-02 2.00000E-03 5.47570E-06
         TOTAL TIME  10195.      169.92      2.8320     0.11800     3.23066E-04
1
1
                            STRESS PERIOD NO.   60, LENGTH =  0.2000000E-02
                            -----------------------------------------------

                              NUMBER OF TIME STEPS =     1

                               MULTIPLIER FOR DELT =     1.000

                            INITIAL TIME STEP SIZE =  0.2000000E-02

 WELL NO.  LAYER   ROW   COL   STRESS RATE         
 --------------------------------------------------
      1      1      1      1       1.000    

      1 WELL
 
 SOLVING FOR HEAD 

 OUTPUT CONTROL FOR STRESS PERIOD   60   TIME STEP   1
    SAVE HEAD FOR ALL LAYERS
    SAVE BUDGET
 UBDSV1 SAVING "         STORAGE" ON UNIT  31 AT TIME STEP  1, STRESS PERIOD  60
 UBDSV2 SAVING "   CONSTANT HEAD" ON UNIT  31 AT TIME STEP  1, STRESS PERIOD  60
 UBDSV1 SAVING "FLOW RIGHT FACE " ON UNIT  31 AT TIME STEP  1, STRESS PERIOD  60
 UBDSV4 SAVING "           WELLS" ON UNIT  31 AT TIME STEP  1, STRESS PERIOD  60

 SAVING SATURATED THICKNESS AND FLOW TERMS ON UNIT  333 FOR MT3DMS
 BY THE LINK-MT3DMS PACKAGE V6.3 AT TIME STEP    1, STRESS PERIOD   60


 HEAD WILL BE SAVED ON UNIT   30 AT END OF TIME STEP   1, STRESS PERIOD   60
1
  VOLUMETRIC BUDGET FOR ENTIRE MODEL AT END OF TIME STEP  1 IN STRESS PERIOD  60
  ------------------------------------------------------------------------------

     CUMULATIVE VOLUMES      L**3       RATES FOR THIS TIME STEP      L**3/T
     ------------------                 ------------------------

           IN:                                      IN:
           ---                                      ---
             STORAGE =       6.8436E-14               STORAGE =       5.7997E-13
       CONSTANT HEAD =           0.0000         CONSTANT HEAD =           0.0000
               WELLS =           0.1200                 WELLS =           1.0000

            TOTAL IN =           0.1200              TOTAL IN =           1.0000

          OUT:                                     OUT:
          ----                                     ----
             STORAGE =       7.1415E-14               STORAGE =       6.0521E-13
       CONSTANT HEAD =           0.1200         CONSTANT HEAD =           1.0000
               WELLS =           0.0000                 WELLS =           0.0000

           TOTAL OUT =           0.1200             TOTAL OUT =           1.0000

            IN - OUT =           0.0000              IN - OUT =           0.0000

 PERCENT DISCREPANCY =           0.00     PERCENT DISCREPANCY =           0.00






          TIME SUMMARY AT END OF TIME STEP   1 IN STRESS PERIOD   60
                    SECONDS     MINUTES      HOURS       DAYS        YEARS
                    -----------------------------------------------------------
   TIME STEP LENGTH  172.80      2.8800     4.80000E-02 2.00000E-03 5.47570E-06
 STRESS PERIOD TIME  172.80      2.8800     4.80000E-02 2.00000E-03 5.47570E-06
         TOTAL TIME  10368.      172.80      2.8800     0.12000     3.28542E-04
1
1
                            STRESS PERIOD NO.   61, LENGTH =  0.2000000E-02
                            -----------------------------------------------

                              NUMBER OF TIME STEPS =     1

                               MULTIPLIER FOR DELT =     1.000

                            INITIAL TIME STEP SIZE =  0.2000000E-02

 WELL NO.  LAYER   ROW   COL   STRESS RATE         
 --------------------------------------------------
      1      1      1      1       1.000    

      1 WELL
 
 SOLVING FOR HEAD 

 OUTPUT CONTROL FOR STRESS PERIOD   61   TIME STEP   1
    SAVE HEAD FOR ALL LAYERS
    SAVE BUDGET
 UBDSV1 SAVING "         STORAGE" ON UNIT  31 AT TIME STEP  1, STRESS PERIOD  61
 UBDSV2 SAVING "   CONSTANT HEAD" ON UNIT  31 AT TIME STEP  1, STRESS PERIOD  61
 UBDSV1 SAVING "FLOW RIGHT FACE " ON UNIT  31 AT TIME STEP  1, STRESS PERIOD  61
 UBDSV4 SAVING "           WELLS" ON UNIT  31 AT TIME STEP  1, STRESS PERIOD  61

 SAVING SATURATED THICKNESS AND FLOW TERMS ON UNIT  333 FOR MT3DMS
 BY THE LINK-MT3DMS PACKAGE V6.3 AT TIME STEP    1, STRESS PERIOD   61


 HEAD WILL BE SAVED ON UNIT   30 AT END OF TIME STEP   1, STRESS PERIOD   61
1
  VOLUMETRIC BUDGET FOR ENTIRE MODEL AT END OF TIME STEP  1 IN STRESS PERIOD  61
  ------------------------------------------------------------------------------

     CUMULATIVE VOLUMES      L**3       RATES FOR THIS TIME STEP      L**3/T
     ------------------                 ------------------------

           IN:                                      IN:
           ---                                      ---
             STORAGE =       6.9596E-14               STORAGE =       5.7997E-13
       CONSTANT HEAD =           0.0000         CONSTANT HEAD =           0.0000
               WELLS =           0.1220                 WELLS =           1.0000

            TOTAL IN =           0.1220              TOTAL IN =           1.0000

          OUT:                                     OUT:
          ----                                     ----
             STORAGE =       7.2626E-14               STORAGE =       6.0521E-13
       CONSTANT HEAD =           0.1220         CONSTANT HEAD =           1.0000
               WELLS =           0.0000                 WELLS =           0.0000

           TOTAL OUT =           0.1220             TOTAL OUT =           1.0000

            IN - OUT =           0.0000              IN - OUT =           0.0000

 PERCENT DISCREPANCY =           0.00     PERCENT DISCREPANCY =           0.00






          TIME SUMMARY AT END OF TIME STEP   1 IN STRESS PERIOD   61
                    SECONDS     MINUTES      HOURS       DAYS        YEARS
                    -----------------------------------------------------------
   TIME STEP LENGTH  172.80      2.8800     4.80000E-02 2.00000E-03 5.47570E-06
 STRESS PERIOD TIME  172.80      2.8800     4.80000E-02 2.00000E-03 5.47570E-06
         TOTAL TIME  10541.      175.68      2.9280     0.12200     3.34018E-04
1
1
                            STRESS PERIOD NO.   62, LENGTH =  0.2000000E-02
                            -----------------------------------------------

                              NUMBER OF TIME STEPS =     1

                               MULTIPLIER FOR DELT =     1.000

                            INITIAL TIME STEP SIZE =  0.2000000E-02

 WELL NO.  LAYER   ROW   COL   STRESS RATE         
 --------------------------------------------------
      1      1      1      1       1.000    

      1 WELL
 
 SOLVING FOR HEAD 

 OUTPUT CONTROL FOR STRESS PERIOD   62   TIME STEP   1
    SAVE HEAD FOR ALL LAYERS
    SAVE BUDGET
 UBDSV1 SAVING "         STORAGE" ON UNIT  31 AT TIME STEP  1, STRESS PERIOD  62
 UBDSV2 SAVING "   CONSTANT HEAD" ON UNIT  31 AT TIME STEP  1, STRESS PERIOD  62
 UBDSV1 SAVING "FLOW RIGHT FACE " ON UNIT  31 AT TIME STEP  1, STRESS PERIOD  62
 UBDSV4 SAVING "           WELLS" ON UNIT  31 AT TIME STEP  1, STRESS PERIOD  62

 SAVING SATURATED THICKNESS AND FLOW TERMS ON UNIT  333 FOR MT3DMS
 BY THE LINK-MT3DMS PACKAGE V6.3 AT TIME STEP    1, STRESS PERIOD   62


 HEAD WILL BE SAVED ON UNIT   30 AT END OF TIME STEP   1, STRESS PERIOD   62
1
  VOLUMETRIC BUDGET FOR ENTIRE MODEL AT END OF TIME STEP  1 IN STRESS PERIOD  62
  ------------------------------------------------------------------------------

     CUMULATIVE VOLUMES      L**3       RATES FOR THIS TIME STEP      L**3/T
     ------------------                 ------------------------

           IN:                                      IN:
           ---                                      ---
             STORAGE =       7.0756E-14               STORAGE =       5.7997E-13
       CONSTANT HEAD =           0.0000         CONSTANT HEAD =           0.0000
               WELLS =           0.1240                 WELLS =           1.0000

            TOTAL IN =           0.1240              TOTAL IN =           1.0000

          OUT:                                     OUT:
          ----                                     ----
             STORAGE =       7.3836E-14               STORAGE =       6.0521E-13
       CONSTANT HEAD =           0.1240         CONSTANT HEAD =           1.0000
               WELLS =           0.0000                 WELLS =           0.0000

           TOTAL OUT =           0.1240             TOTAL OUT =           1.0000

            IN - OUT =           0.0000              IN - OUT =           0.0000

 PERCENT DISCREPANCY =           0.00     PERCENT DISCREPANCY =           0.00






          TIME SUMMARY AT END OF TIME STEP   1 IN STRESS PERIOD   62
                    SECONDS     MINUTES      HOURS       DAYS        YEARS
                    -----------------------------------------------------------
   TIME STEP LENGTH  172.80      2.8800     4.80000E-02 2.00000E-03 5.47570E-06
 STRESS PERIOD TIME  172.80      2.8800     4.80000E-02 2.00000E-03 5.47570E-06
         TOTAL TIME  10714.      178.56      2.9760     0.12400     3.39493E-04
1
1
                            STRESS PERIOD NO.   63, LENGTH =  0.2000000E-02
                            -----------------------------------------------

                              NUMBER OF TIME STEPS =     1

                               MULTIPLIER FOR DELT =     1.000

                            INITIAL TIME STEP SIZE =  0.2000000E-02

 WELL NO.  LAYER   ROW   COL   STRESS RATE         
 --------------------------------------------------
      1      1      1      1       1.000    

      1 WELL
 
 SOLVING FOR HEAD 

 OUTPUT CONTROL FOR STRESS PERIOD   63   TIME STEP   1
    SAVE HEAD FOR ALL LAYERS
    SAVE BUDGET
 UBDSV1 SAVING "         STORAGE" ON UNIT  31 AT TIME STEP  1, STRESS PERIOD  63
 UBDSV2 SAVING "   CONSTANT HEAD" ON UNIT  31 AT TIME STEP  1, STRESS PERIOD  63
 UBDSV1 SAVING "FLOW RIGHT FACE " ON UNIT  31 AT TIME STEP  1, STRESS PERIOD  63
 UBDSV4 SAVING "           WELLS" ON UNIT  31 AT TIME STEP  1, STRESS PERIOD  63

 SAVING SATURATED THICKNESS AND FLOW TERMS ON UNIT  333 FOR MT3DMS
 BY THE LINK-MT3DMS PACKAGE V6.3 AT TIME STEP    1, STRESS PERIOD   63


 HEAD WILL BE SAVED ON UNIT   30 AT END OF TIME STEP   1, STRESS PERIOD   63
1
  VOLUMETRIC BUDGET FOR ENTIRE MODEL AT END OF TIME STEP  1 IN STRESS PERIOD  63
  ------------------------------------------------------------------------------

     CUMULATIVE VOLUMES      L**3       RATES FOR THIS TIME STEP      L**3/T
     ------------------                 ------------------------

           IN:                                      IN:
           ---                                      ---
             STORAGE =       7.1916E-14               STORAGE =       5.7997E-13
       CONSTANT HEAD =           0.0000         CONSTANT HEAD =           0.0000
               WELLS =           0.1260                 WELLS =           1.0000

            TOTAL IN =           0.1260              TOTAL IN =           1.0000

          OUT:                                     OUT:
          ----                                     ----
             STORAGE =       7.5047E-14               STORAGE =       6.0521E-13
       CONSTANT HEAD =           0.1260         CONSTANT HEAD =           1.0000
               WELLS =           0.0000                 WELLS =           0.0000

           TOTAL OUT =           0.1260             TOTAL OUT =           1.0000

            IN - OUT =           0.0000              IN - OUT =           0.0000

 PERCENT DISCREPANCY =           0.00     PERCENT DISCREPANCY =           0.00






          TIME SUMMARY AT END OF TIME STEP   1 IN STRESS PERIOD   63
                    SECONDS     MINUTES      HOURS       DAYS        YEARS
                    -----------------------------------------------------------
   TIME STEP LENGTH  172.80      2.8800     4.80000E-02 2.00000E-03 5.47570E-06
 STRESS PERIOD TIME  172.80      2.8800     4.80000E-02 2.00000E-03 5.47570E-06
         TOTAL TIME  10886.      181.44      3.0240     0.12600     3.44969E-04
1
1
                            STRESS PERIOD NO.   64, LENGTH =  0.2000000E-02
                            -----------------------------------------------

                              NUMBER OF TIME STEPS =     1

                               MULTIPLIER FOR DELT =     1.000

                            INITIAL TIME STEP SIZE =  0.2000000E-02

 WELL NO.  LAYER   ROW   COL   STRESS RATE         
 --------------------------------------------------
      1      1      1      1       1.000    

      1 WELL
 
 SOLVING FOR HEAD 

 OUTPUT CONTROL FOR STRESS PERIOD   64   TIME STEP   1
    SAVE HEAD FOR ALL LAYERS
    SAVE BUDGET
 UBDSV1 SAVING "         STORAGE" ON UNIT  31 AT TIME STEP  1, STRESS PERIOD  64
 UBDSV2 SAVING "   CONSTANT HEAD" ON UNIT  31 AT TIME STEP  1, STRESS PERIOD  64
 UBDSV1 SAVING "FLOW RIGHT FACE " ON UNIT  31 AT TIME STEP  1, STRESS PERIOD  64
 UBDSV4 SAVING "           WELLS" ON UNIT  31 AT TIME STEP  1, STRESS PERIOD  64

 SAVING SATURATED THICKNESS AND FLOW TERMS ON UNIT  333 FOR MT3DMS
 BY THE LINK-MT3DMS PACKAGE V6.3 AT TIME STEP    1, STRESS PERIOD   64


 HEAD WILL BE SAVED ON UNIT   30 AT END OF TIME STEP   1, STRESS PERIOD   64
1
  VOLUMETRIC BUDGET FOR ENTIRE MODEL AT END OF TIME STEP  1 IN STRESS PERIOD  64
  ------------------------------------------------------------------------------

     CUMULATIVE VOLUMES      L**3       RATES FOR THIS TIME STEP      L**3/T
     ------------------                 ------------------------

           IN:                                      IN:
           ---                                      ---
             STORAGE =       7.3076E-14               STORAGE =       5.7997E-13
       CONSTANT HEAD =           0.0000         CONSTANT HEAD =           0.0000
               WELLS =           0.1280                 WELLS =           1.0000

            TOTAL IN =           0.1280              TOTAL IN =           1.0000

          OUT:                                     OUT:
          ----                                     ----
             STORAGE =       7.6257E-14               STORAGE =       6.0521E-13
       CONSTANT HEAD =           0.1280         CONSTANT HEAD =           1.0000
               WELLS =           0.0000                 WELLS =           0.0000

           TOTAL OUT =           0.1280             TOTAL OUT =           1.0000

            IN - OUT =           0.0000              IN - OUT =           0.0000

 PERCENT DISCREPANCY =           0.00     PERCENT DISCREPANCY =           0.00






          TIME SUMMARY AT END OF TIME STEP   1 IN STRESS PERIOD   64
                    SECONDS     MINUTES      HOURS       DAYS        YEARS
                    -----------------------------------------------------------
   TIME STEP LENGTH  172.80      2.8800     4.80000E-02 2.00000E-03 5.47570E-06
 STRESS PERIOD TIME  172.80      2.8800     4.80000E-02 2.00000E-03 5.47570E-06
         TOTAL TIME  11059.      184.32      3.0720     0.12800     3.50445E-04
1
1
                            STRESS PERIOD NO.   65, LENGTH =  0.2000000E-02
                            -----------------------------------------------

                              NUMBER OF TIME STEPS =     1

                               MULTIPLIER FOR DELT =     1.000

                            INITIAL TIME STEP SIZE =  0.2000000E-02

 WELL NO.  LAYER   ROW   COL   STRESS RATE         
 --------------------------------------------------
      1      1      1      1       1.000    

      1 WELL
 
 SOLVING FOR HEAD 

 OUTPUT CONTROL FOR STRESS PERIOD   65   TIME STEP   1
    SAVE HEAD FOR ALL LAYERS
    SAVE BUDGET
 UBDSV1 SAVING "         STORAGE" ON UNIT  31 AT TIME STEP  1, STRESS PERIOD  65
 UBDSV2 SAVING "   CONSTANT HEAD" ON UNIT  31 AT TIME STEP  1, STRESS PERIOD  65
 UBDSV1 SAVING "FLOW RIGHT FACE " ON UNIT  31 AT TIME STEP  1, STRESS PERIOD  65
 UBDSV4 SAVING "           WELLS" ON UNIT  31 AT TIME STEP  1, STRESS PERIOD  65

 SAVING SATURATED THICKNESS AND FLOW TERMS ON UNIT  333 FOR MT3DMS
 BY THE LINK-MT3DMS PACKAGE V6.3 AT TIME STEP    1, STRESS PERIOD   65


 HEAD WILL BE SAVED ON UNIT   30 AT END OF TIME STEP   1, STRESS PERIOD   65
1
  VOLUMETRIC BUDGET FOR ENTIRE MODEL AT END OF TIME STEP  1 IN STRESS PERIOD  65
  ------------------------------------------------------------------------------

     CUMULATIVE VOLUMES      L**3       RATES FOR THIS TIME STEP      L**3/T
     ------------------                 ------------------------

           IN:                                      IN:
           ---                                      ---
             STORAGE =       7.4236E-14               STORAGE =       5.7997E-13
       CONSTANT HEAD =           0.0000         CONSTANT HEAD =           0.0000
               WELLS =           0.1300                 WELLS =           1.0000

            TOTAL IN =           0.1300              TOTAL IN =           1.0000

          OUT:                                     OUT:
          ----                                     ----
             STORAGE =       7.7467E-14               STORAGE =       6.0521E-13
       CONSTANT HEAD =           0.1300         CONSTANT HEAD =           1.0000
               WELLS =           0.0000                 WELLS =           0.0000

           TOTAL OUT =           0.1300             TOTAL OUT =           1.0000

            IN - OUT =           0.0000              IN - OUT =           0.0000

 PERCENT DISCREPANCY =           0.00     PERCENT DISCREPANCY =           0.00






          TIME SUMMARY AT END OF TIME STEP   1 IN STRESS PERIOD   65
                    SECONDS     MINUTES      HOURS       DAYS        YEARS
                    -----------------------------------------------------------
   TIME STEP LENGTH  172.80      2.8800     4.80000E-02 2.00000E-03 5.47570E-06
 STRESS PERIOD TIME  172.80      2.8800     4.80000E-02 2.00000E-03 5.47570E-06
         TOTAL TIME  11232.      187.20      3.1200     0.13000     3.55920E-04
1
1
                            STRESS PERIOD NO.   66, LENGTH =  0.2000000E-02
                            -----------------------------------------------

                              NUMBER OF TIME STEPS =     1

                               MULTIPLIER FOR DELT =     1.000

                            INITIAL TIME STEP SIZE =  0.2000000E-02

 WELL NO.  LAYER   ROW   COL   STRESS RATE         
 --------------------------------------------------
      1      1      1      1       1.000    

      1 WELL
 
 SOLVING FOR HEAD 

 OUTPUT CONTROL FOR STRESS PERIOD   66   TIME STEP   1
    SAVE HEAD FOR ALL LAYERS
    SAVE BUDGET
 UBDSV1 SAVING "         STORAGE" ON UNIT  31 AT TIME STEP  1, STRESS PERIOD  66
 UBDSV2 SAVING "   CONSTANT HEAD" ON UNIT  31 AT TIME STEP  1, STRESS PERIOD  66
 UBDSV1 SAVING "FLOW RIGHT FACE " ON UNIT  31 AT TIME STEP  1, STRESS PERIOD  66
 UBDSV4 SAVING "           WELLS" ON UNIT  31 AT TIME STEP  1, STRESS PERIOD  66

 SAVING SATURATED THICKNESS AND FLOW TERMS ON UNIT  333 FOR MT3DMS
 BY THE LINK-MT3DMS PACKAGE V6.3 AT TIME STEP    1, STRESS PERIOD   66


 HEAD WILL BE SAVED ON UNIT   30 AT END OF TIME STEP   1, STRESS PERIOD   66
1
  VOLUMETRIC BUDGET FOR ENTIRE MODEL AT END OF TIME STEP  1 IN STRESS PERIOD  66
  ------------------------------------------------------------------------------

     CUMULATIVE VOLUMES      L**3       RATES FOR THIS TIME STEP      L**3/T
     ------------------                 ------------------------

           IN:                                      IN:
           ---                                      ---
             STORAGE =       7.5396E-14               STORAGE =       5.7997E-13
       CONSTANT HEAD =           0.0000         CONSTANT HEAD =           0.0000
               WELLS =           0.1320                 WELLS =           1.0000

            TOTAL IN =           0.1320              TOTAL IN =           1.0000

          OUT:                                     OUT:
          ----                                     ----
             STORAGE =       7.8678E-14               STORAGE =       6.0521E-13
       CONSTANT HEAD =           0.1320         CONSTANT HEAD =           1.0000
               WELLS =           0.0000                 WELLS =           0.0000

           TOTAL OUT =           0.1320             TOTAL OUT =           1.0000

            IN - OUT =           0.0000              IN - OUT =           0.0000

 PERCENT DISCREPANCY =           0.00     PERCENT DISCREPANCY =           0.00






          TIME SUMMARY AT END OF TIME STEP   1 IN STRESS PERIOD   66
                    SECONDS     MINUTES      HOURS       DAYS        YEARS
                    -----------------------------------------------------------
   TIME STEP LENGTH  172.80      2.8800     4.80000E-02 2.00000E-03 5.47570E-06
 STRESS PERIOD TIME  172.80      2.8800     4.80000E-02 2.00000E-03 5.47570E-06
         TOTAL TIME  11405.      190.08      3.1680     0.13200     3.61396E-04
1
1
                            STRESS PERIOD NO.   67, LENGTH =  0.2000000E-02
                            -----------------------------------------------

                              NUMBER OF TIME STEPS =     1

                               MULTIPLIER FOR DELT =     1.000

                            INITIAL TIME STEP SIZE =  0.2000000E-02

 WELL NO.  LAYER   ROW   COL   STRESS RATE         
 --------------------------------------------------
      1      1      1      1       1.000    

      1 WELL
 
 SOLVING FOR HEAD 

 OUTPUT CONTROL FOR STRESS PERIOD   67   TIME STEP   1
    SAVE HEAD FOR ALL LAYERS
    SAVE BUDGET
 UBDSV1 SAVING "         STORAGE" ON UNIT  31 AT TIME STEP  1, STRESS PERIOD  67
 UBDSV2 SAVING "   CONSTANT HEAD" ON UNIT  31 AT TIME STEP  1, STRESS PERIOD  67
 UBDSV1 SAVING "FLOW RIGHT FACE " ON UNIT  31 AT TIME STEP  1, STRESS PERIOD  67
 UBDSV4 SAVING "           WELLS" ON UNIT  31 AT TIME STEP  1, STRESS PERIOD  67

 SAVING SATURATED THICKNESS AND FLOW TERMS ON UNIT  333 FOR MT3DMS
 BY THE LINK-MT3DMS PACKAGE V6.3 AT TIME STEP    1, STRESS PERIOD   67


 HEAD WILL BE SAVED ON UNIT   30 AT END OF TIME STEP   1, STRESS PERIOD   67
1
  VOLUMETRIC BUDGET FOR ENTIRE MODEL AT END OF TIME STEP  1 IN STRESS PERIOD  67
  ------------------------------------------------------------------------------

     CUMULATIVE VOLUMES      L**3       RATES FOR THIS TIME STEP      L**3/T
     ------------------                 ------------------------

           IN:                                      IN:
           ---                                      ---
             STORAGE =       7.6556E-14               STORAGE =       5.7997E-13
       CONSTANT HEAD =           0.0000         CONSTANT HEAD =           0.0000
               WELLS =           0.1340                 WELLS =           1.0000

            TOTAL IN =           0.1340              TOTAL IN =           1.0000

          OUT:                                     OUT:
          ----                                     ----
             STORAGE =       7.9888E-14               STORAGE =       6.0521E-13
       CONSTANT HEAD =           0.1340         CONSTANT HEAD =           1.0000
               WELLS =           0.0000                 WELLS =           0.0000

           TOTAL OUT =           0.1340             TOTAL OUT =           1.0000

            IN - OUT =           0.0000              IN - OUT =           0.0000

 PERCENT DISCREPANCY =           0.00     PERCENT DISCREPANCY =           0.00






          TIME SUMMARY AT END OF TIME STEP   1 IN STRESS PERIOD   67
                    SECONDS     MINUTES      HOURS       DAYS        YEARS
                    -----------------------------------------------------------
   TIME STEP LENGTH  172.80      2.8800     4.80000E-02 2.00000E-03 5.47570E-06
 STRESS PERIOD TIME  172.80      2.8800     4.80000E-02 2.00000E-03 5.47570E-06
         TOTAL TIME  11578.      192.96      3.2160     0.13400     3.66872E-04
1
1
                            STRESS PERIOD NO.   68, LENGTH =  0.2000000E-02
                            -----------------------------------------------

                              NUMBER OF TIME STEPS =     1

                               MULTIPLIER FOR DELT =     1.000

                            INITIAL TIME STEP SIZE =  0.2000000E-02

 WELL NO.  LAYER   ROW   COL   STRESS RATE         
 --------------------------------------------------
      1      1      1      1       1.000    

      1 WELL
 
 SOLVING FOR HEAD 

 OUTPUT CONTROL FOR STRESS PERIOD   68   TIME STEP   1
    SAVE HEAD FOR ALL LAYERS
    SAVE BUDGET
 UBDSV1 SAVING "         STORAGE" ON UNIT  31 AT TIME STEP  1, STRESS PERIOD  68
 UBDSV2 SAVING "   CONSTANT HEAD" ON UNIT  31 AT TIME STEP  1, STRESS PERIOD  68
 UBDSV1 SAVING "FLOW RIGHT FACE " ON UNIT  31 AT TIME STEP  1, STRESS PERIOD  68
 UBDSV4 SAVING "           WELLS" ON UNIT  31 AT TIME STEP  1, STRESS PERIOD  68

 SAVING SATURATED THICKNESS AND FLOW TERMS ON UNIT  333 FOR MT3DMS
 BY THE LINK-MT3DMS PACKAGE V6.3 AT TIME STEP    1, STRESS PERIOD   68


 HEAD WILL BE SAVED ON UNIT   30 AT END OF TIME STEP   1, STRESS PERIOD   68
1
  VOLUMETRIC BUDGET FOR ENTIRE MODEL AT END OF TIME STEP  1 IN STRESS PERIOD  68
  ------------------------------------------------------------------------------

     CUMULATIVE VOLUMES      L**3       RATES FOR THIS TIME STEP      L**3/T
     ------------------                 ------------------------

           IN:                                      IN:
           ---                                      ---
             STORAGE =       7.7716E-14               STORAGE =       5.7997E-13
       CONSTANT HEAD =           0.0000         CONSTANT HEAD =           0.0000
               WELLS =           0.1360                 WELLS =           1.0000

            TOTAL IN =           0.1360              TOTAL IN =           1.0000

          OUT:                                     OUT:
          ----                                     ----
             STORAGE =       8.1099E-14               STORAGE =       6.0521E-13
       CONSTANT HEAD =           0.1360         CONSTANT HEAD =           1.0000
               WELLS =           0.0000                 WELLS =           0.0000

           TOTAL OUT =           0.1360             TOTAL OUT =           1.0000

            IN - OUT =           0.0000              IN - OUT =           0.0000

 PERCENT DISCREPANCY =           0.00     PERCENT DISCREPANCY =           0.00






          TIME SUMMARY AT END OF TIME STEP   1 IN STRESS PERIOD   68
                    SECONDS     MINUTES      HOURS       DAYS        YEARS
                    -----------------------------------------------------------
   TIME STEP LENGTH  172.80      2.8800     4.80000E-02 2.00000E-03 5.47570E-06
 STRESS PERIOD TIME  172.80      2.8800     4.80000E-02 2.00000E-03 5.47570E-06
         TOTAL TIME  11750.      195.84      3.2640     0.13600     3.72347E-04
1
1
                            STRESS PERIOD NO.   69, LENGTH =  0.2000000E-02
                            -----------------------------------------------

                              NUMBER OF TIME STEPS =     1

                               MULTIPLIER FOR DELT =     1.000

                            INITIAL TIME STEP SIZE =  0.2000000E-02

 WELL NO.  LAYER   ROW   COL   STRESS RATE         
 --------------------------------------------------
      1      1      1      1       1.000    

      1 WELL
 
 SOLVING FOR HEAD 

 OUTPUT CONTROL FOR STRESS PERIOD   69   TIME STEP   1
    SAVE HEAD FOR ALL LAYERS
    SAVE BUDGET
 UBDSV1 SAVING "         STORAGE" ON UNIT  31 AT TIME STEP  1, STRESS PERIOD  69
 UBDSV2 SAVING "   CONSTANT HEAD" ON UNIT  31 AT TIME STEP  1, STRESS PERIOD  69
 UBDSV1 SAVING "FLOW RIGHT FACE " ON UNIT  31 AT TIME STEP  1, STRESS PERIOD  69
 UBDSV4 SAVING "           WELLS" ON UNIT  31 AT TIME STEP  1, STRESS PERIOD  69

 SAVING SATURATED THICKNESS AND FLOW TERMS ON UNIT  333 FOR MT3DMS
 BY THE LINK-MT3DMS PACKAGE V6.3 AT TIME STEP    1, STRESS PERIOD   69


 HEAD WILL BE SAVED ON UNIT   30 AT END OF TIME STEP   1, STRESS PERIOD   69
1
  VOLUMETRIC BUDGET FOR ENTIRE MODEL AT END OF TIME STEP  1 IN STRESS PERIOD  69
  ------------------------------------------------------------------------------

     CUMULATIVE VOLUMES      L**3       RATES FOR THIS TIME STEP      L**3/T
     ------------------                 ------------------------

           IN:                                      IN:
           ---                                      ---
             STORAGE =       7.8876E-14               STORAGE =       5.7997E-13
       CONSTANT HEAD =           0.0000         CONSTANT HEAD =           0.0000
               WELLS =           0.1380                 WELLS =           1.0000

            TOTAL IN =           0.1380              TOTAL IN =           1.0000

          OUT:                                     OUT:
          ----                                     ----
             STORAGE =       8.2309E-14               STORAGE =       6.0521E-13
       CONSTANT HEAD =           0.1380         CONSTANT HEAD =           1.0000
               WELLS =           0.0000                 WELLS =           0.0000

           TOTAL OUT =           0.1380             TOTAL OUT =           1.0000

            IN - OUT =           0.0000              IN - OUT =           0.0000

 PERCENT DISCREPANCY =           0.00     PERCENT DISCREPANCY =           0.00






          TIME SUMMARY AT END OF TIME STEP   1 IN STRESS PERIOD   69
                    SECONDS     MINUTES      HOURS       DAYS        YEARS
                    -----------------------------------------------------------
   TIME STEP LENGTH  172.80      2.8800     4.80000E-02 2.00000E-03 5.47570E-06
 STRESS PERIOD TIME  172.80      2.8800     4.80000E-02 2.00000E-03 5.47570E-06
         TOTAL TIME  11923.      198.72      3.3120     0.13800     3.77823E-04
1
1
                            STRESS PERIOD NO.   70, LENGTH =  0.2000000E-02
                            -----------------------------------------------

                              NUMBER OF TIME STEPS =     1

                               MULTIPLIER FOR DELT =     1.000

                            INITIAL TIME STEP SIZE =  0.2000000E-02

 WELL NO.  LAYER   ROW   COL   STRESS RATE         
 --------------------------------------------------
      1      1      1      1       1.000    

      1 WELL
 
 SOLVING FOR HEAD 

 OUTPUT CONTROL FOR STRESS PERIOD   70   TIME STEP   1
    SAVE HEAD FOR ALL LAYERS
    SAVE BUDGET
 UBDSV1 SAVING "         STORAGE" ON UNIT  31 AT TIME STEP  1, STRESS PERIOD  70
 UBDSV2 SAVING "   CONSTANT HEAD" ON UNIT  31 AT TIME STEP  1, STRESS PERIOD  70
 UBDSV1 SAVING "FLOW RIGHT FACE " ON UNIT  31 AT TIME STEP  1, STRESS PERIOD  70
 UBDSV4 SAVING "           WELLS" ON UNIT  31 AT TIME STEP  1, STRESS PERIOD  70

 SAVING SATURATED THICKNESS AND FLOW TERMS ON UNIT  333 FOR MT3DMS
 BY THE LINK-MT3DMS PACKAGE V6.3 AT TIME STEP    1, STRESS PERIOD   70


 HEAD WILL BE SAVED ON UNIT   30 AT END OF TIME STEP   1, STRESS PERIOD   70
1
  VOLUMETRIC BUDGET FOR ENTIRE MODEL AT END OF TIME STEP  1 IN STRESS PERIOD  70
  ------------------------------------------------------------------------------

     CUMULATIVE VOLUMES      L**3       RATES FOR THIS TIME STEP      L**3/T
     ------------------                 ------------------------

           IN:                                      IN:
           ---                                      ---
             STORAGE =       8.0035E-14               STORAGE =       5.7997E-13
       CONSTANT HEAD =           0.0000         CONSTANT HEAD =           0.0000
               WELLS =           0.1400                 WELLS =           1.0000

            TOTAL IN =           0.1400              TOTAL IN =           1.0000

          OUT:                                     OUT:
          ----                                     ----
             STORAGE =       8.3520E-14               STORAGE =       6.0521E-13
       CONSTANT HEAD =           0.1400         CONSTANT HEAD =           1.0000
               WELLS =           0.0000                 WELLS =           0.0000

           TOTAL OUT =           0.1400             TOTAL OUT =           1.0000

            IN - OUT =           0.0000              IN - OUT =           0.0000

 PERCENT DISCREPANCY =           0.00     PERCENT DISCREPANCY =           0.00






          TIME SUMMARY AT END OF TIME STEP   1 IN STRESS PERIOD   70
                    SECONDS     MINUTES      HOURS       DAYS        YEARS
                    -----------------------------------------------------------
   TIME STEP LENGTH  172.80      2.8800     4.80000E-02 2.00000E-03 5.47570E-06
 STRESS PERIOD TIME  172.80      2.8800     4.80000E-02 2.00000E-03 5.47570E-06
         TOTAL TIME  12096.      201.60      3.3600     0.14000     3.83299E-04
1
1
                            STRESS PERIOD NO.   71, LENGTH =  0.2000000E-02
                            -----------------------------------------------

                              NUMBER OF TIME STEPS =     1

                               MULTIPLIER FOR DELT =     1.000

                            INITIAL TIME STEP SIZE =  0.2000000E-02

 WELL NO.  LAYER   ROW   COL   STRESS RATE         
 --------------------------------------------------
      1      1      1      1       1.000    

      1 WELL
 
 SOLVING FOR HEAD 

 OUTPUT CONTROL FOR STRESS PERIOD   71   TIME STEP   1
    SAVE HEAD FOR ALL LAYERS
    SAVE BUDGET
 UBDSV1 SAVING "         STORAGE" ON UNIT  31 AT TIME STEP  1, STRESS PERIOD  71
 UBDSV2 SAVING "   CONSTANT HEAD" ON UNIT  31 AT TIME STEP  1, STRESS PERIOD  71
 UBDSV1 SAVING "FLOW RIGHT FACE " ON UNIT  31 AT TIME STEP  1, STRESS PERIOD  71
 UBDSV4 SAVING "           WELLS" ON UNIT  31 AT TIME STEP  1, STRESS PERIOD  71

 SAVING SATURATED THICKNESS AND FLOW TERMS ON UNIT  333 FOR MT3DMS
 BY THE LINK-MT3DMS PACKAGE V6.3 AT TIME STEP    1, STRESS PERIOD   71


 HEAD WILL BE SAVED ON UNIT   30 AT END OF TIME STEP   1, STRESS PERIOD   71
1
  VOLUMETRIC BUDGET FOR ENTIRE MODEL AT END OF TIME STEP  1 IN STRESS PERIOD  71
  ------------------------------------------------------------------------------

     CUMULATIVE VOLUMES      L**3       RATES FOR THIS TIME STEP      L**3/T
     ------------------                 ------------------------

           IN:                                      IN:
           ---                                      ---
             STORAGE =       8.1195E-14               STORAGE =       5.7997E-13
       CONSTANT HEAD =           0.0000         CONSTANT HEAD =           0.0000
               WELLS =           0.1420                 WELLS =           1.0000

            TOTAL IN =           0.1420              TOTAL IN =           1.0000

          OUT:                                     OUT:
          ----                                     ----
             STORAGE =       8.4730E-14               STORAGE =       6.0521E-13
       CONSTANT HEAD =           0.1420         CONSTANT HEAD =           1.0000
               WELLS =           0.0000                 WELLS =           0.0000

           TOTAL OUT =           0.1420             TOTAL OUT =           1.0000

            IN - OUT =           0.0000              IN - OUT =           0.0000

 PERCENT DISCREPANCY =           0.00     PERCENT DISCREPANCY =           0.00






          TIME SUMMARY AT END OF TIME STEP   1 IN STRESS PERIOD   71
                    SECONDS     MINUTES      HOURS       DAYS        YEARS
                    -----------------------------------------------------------
   TIME STEP LENGTH  172.80      2.8800     4.80000E-02 2.00000E-03 5.47570E-06
 STRESS PERIOD TIME  172.80      2.8800     4.80000E-02 2.00000E-03 5.47570E-06
         TOTAL TIME  12269.      204.48      3.4080     0.14200     3.88775E-04
1
1
                            STRESS PERIOD NO.   72, LENGTH =  0.2000000E-02
                            -----------------------------------------------

                              NUMBER OF TIME STEPS =     1

                               MULTIPLIER FOR DELT =     1.000

                            INITIAL TIME STEP SIZE =  0.2000000E-02

 WELL NO.  LAYER   ROW   COL   STRESS RATE         
 --------------------------------------------------
      1      1      1      1       1.000    

      1 WELL
 
 SOLVING FOR HEAD 

 OUTPUT CONTROL FOR STRESS PERIOD   72   TIME STEP   1
    SAVE HEAD FOR ALL LAYERS
    SAVE BUDGET
 UBDSV1 SAVING "         STORAGE" ON UNIT  31 AT TIME STEP  1, STRESS PERIOD  72
 UBDSV2 SAVING "   CONSTANT HEAD" ON UNIT  31 AT TIME STEP  1, STRESS PERIOD  72
 UBDSV1 SAVING "FLOW RIGHT FACE " ON UNIT  31 AT TIME STEP  1, STRESS PERIOD  72
 UBDSV4 SAVING "           WELLS" ON UNIT  31 AT TIME STEP  1, STRESS PERIOD  72

 SAVING SATURATED THICKNESS AND FLOW TERMS ON UNIT  333 FOR MT3DMS
 BY THE LINK-MT3DMS PACKAGE V6.3 AT TIME STEP    1, STRESS PERIOD   72


 HEAD WILL BE SAVED ON UNIT   30 AT END OF TIME STEP   1, STRESS PERIOD   72
1
  VOLUMETRIC BUDGET FOR ENTIRE MODEL AT END OF TIME STEP  1 IN STRESS PERIOD  72
  ------------------------------------------------------------------------------

     CUMULATIVE VOLUMES      L**3       RATES FOR THIS TIME STEP      L**3/T
     ------------------                 ------------------------

           IN:                                      IN:
           ---                                      ---
             STORAGE =       8.2355E-14               STORAGE =       5.7997E-13
       CONSTANT HEAD =           0.0000         CONSTANT HEAD =           0.0000
               WELLS =           0.1440                 WELLS =           1.0000

            TOTAL IN =           0.1440              TOTAL IN =           1.0000

          OUT:                                     OUT:
          ----                                     ----
             STORAGE =       8.5940E-14               STORAGE =       6.0521E-13
       CONSTANT HEAD =           0.1440         CONSTANT HEAD =           1.0000
               WELLS =           0.0000                 WELLS =           0.0000

           TOTAL OUT =           0.1440             TOTAL OUT =           1.0000

            IN - OUT =           0.0000              IN - OUT =           0.0000

 PERCENT DISCREPANCY =           0.00     PERCENT DISCREPANCY =           0.00






          TIME SUMMARY AT END OF TIME STEP   1 IN STRESS PERIOD   72
                    SECONDS     MINUTES      HOURS       DAYS        YEARS
                    -----------------------------------------------------------
   TIME STEP LENGTH  172.80      2.8800     4.80000E-02 2.00000E-03 5.47570E-06
 STRESS PERIOD TIME  172.80      2.8800     4.80000E-02 2.00000E-03 5.47570E-06
         TOTAL TIME  12442.      207.36      3.4560     0.14400     3.94250E-04
1
1
                            STRESS PERIOD NO.   73, LENGTH =  0.2000000E-02
                            -----------------------------------------------

                              NUMBER OF TIME STEPS =     1

                               MULTIPLIER FOR DELT =     1.000

                            INITIAL TIME STEP SIZE =  0.2000000E-02

 WELL NO.  LAYER   ROW   COL   STRESS RATE         
 --------------------------------------------------
      1      1      1      1       1.000    

      1 WELL
 
 SOLVING FOR HEAD 

 OUTPUT CONTROL FOR STRESS PERIOD   73   TIME STEP   1
    SAVE HEAD FOR ALL LAYERS
    SAVE BUDGET
 UBDSV1 SAVING "         STORAGE" ON UNIT  31 AT TIME STEP  1, STRESS PERIOD  73
 UBDSV2 SAVING "   CONSTANT HEAD" ON UNIT  31 AT TIME STEP  1, STRESS PERIOD  73
 UBDSV1 SAVING "FLOW RIGHT FACE " ON UNIT  31 AT TIME STEP  1, STRESS PERIOD  73
 UBDSV4 SAVING "           WELLS" ON UNIT  31 AT TIME STEP  1, STRESS PERIOD  73

 SAVING SATURATED THICKNESS AND FLOW TERMS ON UNIT  333 FOR MT3DMS
 BY THE LINK-MT3DMS PACKAGE V6.3 AT TIME STEP    1, STRESS PERIOD   73


 HEAD WILL BE SAVED ON UNIT   30 AT END OF TIME STEP   1, STRESS PERIOD   73
1
  VOLUMETRIC BUDGET FOR ENTIRE MODEL AT END OF TIME STEP  1 IN STRESS PERIOD  73
  ------------------------------------------------------------------------------

     CUMULATIVE VOLUMES      L**3       RATES FOR THIS TIME STEP      L**3/T
     ------------------                 ------------------------

           IN:                                      IN:
           ---                                      ---
             STORAGE =       8.3515E-14               STORAGE =       5.7997E-13
       CONSTANT HEAD =           0.0000         CONSTANT HEAD =           0.0000
               WELLS =           0.1460                 WELLS =           1.0000

            TOTAL IN =           0.1460              TOTAL IN =           1.0000

          OUT:                                     OUT:
          ----                                     ----
             STORAGE =       8.7151E-14               STORAGE =       6.0521E-13
       CONSTANT HEAD =           0.1460         CONSTANT HEAD =           1.0000
               WELLS =           0.0000                 WELLS =           0.0000

           TOTAL OUT =           0.1460             TOTAL OUT =           1.0000

            IN - OUT =           0.0000              IN - OUT =           0.0000

 PERCENT DISCREPANCY =           0.00     PERCENT DISCREPANCY =           0.00






          TIME SUMMARY AT END OF TIME STEP   1 IN STRESS PERIOD   73
                    SECONDS     MINUTES      HOURS       DAYS        YEARS
                    -----------------------------------------------------------
   TIME STEP LENGTH  172.80      2.8800     4.80000E-02 2.00000E-03 5.47570E-06
 STRESS PERIOD TIME  172.80      2.8800     4.80000E-02 2.00000E-03 5.47570E-06
         TOTAL TIME  12614.      210.24      3.5040     0.14600     3.99726E-04
1
1
                            STRESS PERIOD NO.   74, LENGTH =  0.2000000E-02
                            -----------------------------------------------

                              NUMBER OF TIME STEPS =     1

                               MULTIPLIER FOR DELT =     1.000

                            INITIAL TIME STEP SIZE =  0.2000000E-02

 WELL NO.  LAYER   ROW   COL   STRESS RATE         
 --------------------------------------------------
      1      1      1      1       1.000    

      1 WELL
 
 SOLVING FOR HEAD 

 OUTPUT CONTROL FOR STRESS PERIOD   74   TIME STEP   1
    SAVE HEAD FOR ALL LAYERS
    SAVE BUDGET
 UBDSV1 SAVING "         STORAGE" ON UNIT  31 AT TIME STEP  1, STRESS PERIOD  74
 UBDSV2 SAVING "   CONSTANT HEAD" ON UNIT  31 AT TIME STEP  1, STRESS PERIOD  74
 UBDSV1 SAVING "FLOW RIGHT FACE " ON UNIT  31 AT TIME STEP  1, STRESS PERIOD  74
 UBDSV4 SAVING "           WELLS" ON UNIT  31 AT TIME STEP  1, STRESS PERIOD  74

 SAVING SATURATED THICKNESS AND FLOW TERMS ON UNIT  333 FOR MT3DMS
 BY THE LINK-MT3DMS PACKAGE V6.3 AT TIME STEP    1, STRESS PERIOD   74


 HEAD WILL BE SAVED ON UNIT   30 AT END OF TIME STEP   1, STRESS PERIOD   74
1
  VOLUMETRIC BUDGET FOR ENTIRE MODEL AT END OF TIME STEP  1 IN STRESS PERIOD  74
  ------------------------------------------------------------------------------

     CUMULATIVE VOLUMES      L**3       RATES FOR THIS TIME STEP      L**3/T
     ------------------                 ------------------------

           IN:                                      IN:
           ---                                      ---
             STORAGE =       8.4675E-14               STORAGE =       5.7997E-13
       CONSTANT HEAD =           0.0000         CONSTANT HEAD =           0.0000
               WELLS =           0.1480                 WELLS =           1.0000

            TOTAL IN =           0.1480              TOTAL IN =           1.0000

          OUT:                                     OUT:
          ----                                     ----
             STORAGE =       8.8361E-14               STORAGE =       6.0521E-13
       CONSTANT HEAD =           0.1480         CONSTANT HEAD =           1.0000
               WELLS =           0.0000                 WELLS =           0.0000

           TOTAL OUT =           0.1480             TOTAL OUT =           1.0000

            IN - OUT =           0.0000              IN - OUT =           0.0000

 PERCENT DISCREPANCY =           0.00     PERCENT DISCREPANCY =           0.00






          TIME SUMMARY AT END OF TIME STEP   1 IN STRESS PERIOD   74
                    SECONDS     MINUTES      HOURS       DAYS        YEARS
                    -----------------------------------------------------------
   TIME STEP LENGTH  172.80      2.8800     4.80000E-02 2.00000E-03 5.47570E-06
 STRESS PERIOD TIME  172.80      2.8800     4.80000E-02 2.00000E-03 5.47570E-06
         TOTAL TIME  12787.      213.12      3.5520     0.14800     4.05202E-04
1
1
                            STRESS PERIOD NO.   75, LENGTH =  0.2000000E-02
                            -----------------------------------------------

                              NUMBER OF TIME STEPS =     1

                               MULTIPLIER FOR DELT =     1.000

                            INITIAL TIME STEP SIZE =  0.2000000E-02

 WELL NO.  LAYER   ROW   COL   STRESS RATE         
 --------------------------------------------------
      1      1      1      1       1.000    

      1 WELL
 
 SOLVING FOR HEAD 

 OUTPUT CONTROL FOR STRESS PERIOD   75   TIME STEP   1
    SAVE HEAD FOR ALL LAYERS
    SAVE BUDGET
 UBDSV1 SAVING "         STORAGE" ON UNIT  31 AT TIME STEP  1, STRESS PERIOD  75
 UBDSV2 SAVING "   CONSTANT HEAD" ON UNIT  31 AT TIME STEP  1, STRESS PERIOD  75
 UBDSV1 SAVING "FLOW RIGHT FACE " ON UNIT  31 AT TIME STEP  1, STRESS PERIOD  75
 UBDSV4 SAVING "           WELLS" ON UNIT  31 AT TIME STEP  1, STRESS PERIOD  75

 SAVING SATURATED THICKNESS AND FLOW TERMS ON UNIT  333 FOR MT3DMS
 BY THE LINK-MT3DMS PACKAGE V6.3 AT TIME STEP    1, STRESS PERIOD   75


 HEAD WILL BE SAVED ON UNIT   30 AT END OF TIME STEP   1, STRESS PERIOD   75
1
  VOLUMETRIC BUDGET FOR ENTIRE MODEL AT END OF TIME STEP  1 IN STRESS PERIOD  75
  ------------------------------------------------------------------------------

     CUMULATIVE VOLUMES      L**3       RATES FOR THIS TIME STEP      L**3/T
     ------------------                 ------------------------

           IN:                                      IN:
           ---                                      ---
             STORAGE =       8.5835E-14               STORAGE =       5.7997E-13
       CONSTANT HEAD =           0.0000         CONSTANT HEAD =           0.0000
               WELLS =           0.1500                 WELLS =           1.0000

            TOTAL IN =           0.1500              TOTAL IN =           1.0000

          OUT:                                     OUT:
          ----                                     ----
             STORAGE =       8.9572E-14               STORAGE =       6.0521E-13
       CONSTANT HEAD =           0.1500         CONSTANT HEAD =           1.0000
               WELLS =           0.0000                 WELLS =           0.0000

           TOTAL OUT =           0.1500             TOTAL OUT =           1.0000

            IN - OUT =           0.0000              IN - OUT =           0.0000

 PERCENT DISCREPANCY =           0.00     PERCENT DISCREPANCY =           0.00






          TIME SUMMARY AT END OF TIME STEP   1 IN STRESS PERIOD   75
                    SECONDS     MINUTES      HOURS       DAYS        YEARS
                    -----------------------------------------------------------
   TIME STEP LENGTH  172.80      2.8800     4.80000E-02 2.00000E-03 5.47570E-06
 STRESS PERIOD TIME  172.80      2.8800     4.80000E-02 2.00000E-03 5.47570E-06
         TOTAL TIME  12960.      216.00      3.6000     0.15000     4.10677E-04
1
1
                            STRESS PERIOD NO.   76, LENGTH =  0.2000000E-02
                            -----------------------------------------------

                              NUMBER OF TIME STEPS =     1

                               MULTIPLIER FOR DELT =     1.000

                            INITIAL TIME STEP SIZE =  0.2000000E-02

 WELL NO.  LAYER   ROW   COL   STRESS RATE         
 --------------------------------------------------
      1      1      1      1       1.000    

      1 WELL
 
 SOLVING FOR HEAD 

 OUTPUT CONTROL FOR STRESS PERIOD   76   TIME STEP   1
    SAVE HEAD FOR ALL LAYERS
    SAVE BUDGET
 UBDSV1 SAVING "         STORAGE" ON UNIT  31 AT TIME STEP  1, STRESS PERIOD  76
 UBDSV2 SAVING "   CONSTANT HEAD" ON UNIT  31 AT TIME STEP  1, STRESS PERIOD  76
 UBDSV1 SAVING "FLOW RIGHT FACE " ON UNIT  31 AT TIME STEP  1, STRESS PERIOD  76
 UBDSV4 SAVING "           WELLS" ON UNIT  31 AT TIME STEP  1, STRESS PERIOD  76

 SAVING SATURATED THICKNESS AND FLOW TERMS ON UNIT  333 FOR MT3DMS
 BY THE LINK-MT3DMS PACKAGE V6.3 AT TIME STEP    1, STRESS PERIOD   76


 HEAD WILL BE SAVED ON UNIT   30 AT END OF TIME STEP   1, STRESS PERIOD   76
1
  VOLUMETRIC BUDGET FOR ENTIRE MODEL AT END OF TIME STEP  1 IN STRESS PERIOD  76
  ------------------------------------------------------------------------------

     CUMULATIVE VOLUMES      L**3       RATES FOR THIS TIME STEP      L**3/T
     ------------------                 ------------------------

           IN:                                      IN:
           ---                                      ---
             STORAGE =       8.6995E-14               STORAGE =       5.7997E-13
       CONSTANT HEAD =           0.0000         CONSTANT HEAD =           0.0000
               WELLS =           0.1520                 WELLS =           1.0000

            TOTAL IN =           0.1520              TOTAL IN =           1.0000

          OUT:                                     OUT:
          ----                                     ----
             STORAGE =       9.0782E-14               STORAGE =       6.0521E-13
       CONSTANT HEAD =           0.1520         CONSTANT HEAD =           1.0000
               WELLS =           0.0000                 WELLS =           0.0000

           TOTAL OUT =           0.1520             TOTAL OUT =           1.0000

            IN - OUT =           0.0000              IN - OUT =           0.0000

 PERCENT DISCREPANCY =           0.00     PERCENT DISCREPANCY =           0.00






          TIME SUMMARY AT END OF TIME STEP   1 IN STRESS PERIOD   76
                    SECONDS     MINUTES      HOURS       DAYS        YEARS
                    -----------------------------------------------------------
   TIME STEP LENGTH  172.80      2.8800     4.80000E-02 2.00000E-03 5.47570E-06
 STRESS PERIOD TIME  172.80      2.8800     4.80000E-02 2.00000E-03 5.47570E-06
         TOTAL TIME  13133.      218.88      3.6480     0.15200     4.16153E-04
1
1
                            STRESS PERIOD NO.   77, LENGTH =  0.2000000E-02
                            -----------------------------------------------

                              NUMBER OF TIME STEPS =     1

                               MULTIPLIER FOR DELT =     1.000

                            INITIAL TIME STEP SIZE =  0.2000000E-02

 WELL NO.  LAYER   ROW   COL   STRESS RATE         
 --------------------------------------------------
      1      1      1      1       1.000    

      1 WELL
 
 SOLVING FOR HEAD 

 OUTPUT CONTROL FOR STRESS PERIOD   77   TIME STEP   1
    SAVE HEAD FOR ALL LAYERS
    SAVE BUDGET
 UBDSV1 SAVING "         STORAGE" ON UNIT  31 AT TIME STEP  1, STRESS PERIOD  77
 UBDSV2 SAVING "   CONSTANT HEAD" ON UNIT  31 AT TIME STEP  1, STRESS PERIOD  77
 UBDSV1 SAVING "FLOW RIGHT FACE " ON UNIT  31 AT TIME STEP  1, STRESS PERIOD  77
 UBDSV4 SAVING "           WELLS" ON UNIT  31 AT TIME STEP  1, STRESS PERIOD  77

 SAVING SATURATED THICKNESS AND FLOW TERMS ON UNIT  333 FOR MT3DMS
 BY THE LINK-MT3DMS PACKAGE V6.3 AT TIME STEP    1, STRESS PERIOD   77


 HEAD WILL BE SAVED ON UNIT   30 AT END OF TIME STEP   1, STRESS PERIOD   77
1
  VOLUMETRIC BUDGET FOR ENTIRE MODEL AT END OF TIME STEP  1 IN STRESS PERIOD  77
  ------------------------------------------------------------------------------

     CUMULATIVE VOLUMES      L**3       RATES FOR THIS TIME STEP      L**3/T
     ------------------                 ------------------------

           IN:                                      IN:
           ---                                      ---
             STORAGE =       8.8155E-14               STORAGE =       5.7997E-13
       CONSTANT HEAD =           0.0000         CONSTANT HEAD =           0.0000
               WELLS =           0.1540                 WELLS =           1.0000

            TOTAL IN =           0.1540              TOTAL IN =           1.0000

          OUT:                                     OUT:
          ----                                     ----
             STORAGE =       9.1993E-14               STORAGE =       6.0521E-13
       CONSTANT HEAD =           0.1540         CONSTANT HEAD =           1.0000
               WELLS =           0.0000                 WELLS =           0.0000

           TOTAL OUT =           0.1540             TOTAL OUT =           1.0000

            IN - OUT =           0.0000              IN - OUT =           0.0000

 PERCENT DISCREPANCY =           0.00     PERCENT DISCREPANCY =           0.00






          TIME SUMMARY AT END OF TIME STEP   1 IN STRESS PERIOD   77
                    SECONDS     MINUTES      HOURS       DAYS        YEARS
                    -----------------------------------------------------------
   TIME STEP LENGTH  172.80      2.8800     4.80000E-02 2.00000E-03 5.47570E-06
 STRESS PERIOD TIME  172.80      2.8800     4.80000E-02 2.00000E-03 5.47570E-06
         TOTAL TIME  13306.      221.76      3.6960     0.15400     4.21629E-04
1
1
                            STRESS PERIOD NO.   78, LENGTH =  0.2000000E-02
                            -----------------------------------------------

                              NUMBER OF TIME STEPS =     1

                               MULTIPLIER FOR DELT =     1.000

                            INITIAL TIME STEP SIZE =  0.2000000E-02

 WELL NO.  LAYER   ROW   COL   STRESS RATE         
 --------------------------------------------------
      1      1      1      1       1.000    

      1 WELL
 
 SOLVING FOR HEAD 

 OUTPUT CONTROL FOR STRESS PERIOD   78   TIME STEP   1
    SAVE HEAD FOR ALL LAYERS
    SAVE BUDGET
 UBDSV1 SAVING "         STORAGE" ON UNIT  31 AT TIME STEP  1, STRESS PERIOD  78
 UBDSV2 SAVING "   CONSTANT HEAD" ON UNIT  31 AT TIME STEP  1, STRESS PERIOD  78
 UBDSV1 SAVING "FLOW RIGHT FACE " ON UNIT  31 AT TIME STEP  1, STRESS PERIOD  78
 UBDSV4 SAVING "           WELLS" ON UNIT  31 AT TIME STEP  1, STRESS PERIOD  78

 SAVING SATURATED THICKNESS AND FLOW TERMS ON UNIT  333 FOR MT3DMS
 BY THE LINK-MT3DMS PACKAGE V6.3 AT TIME STEP    1, STRESS PERIOD   78


 HEAD WILL BE SAVED ON UNIT   30 AT END OF TIME STEP   1, STRESS PERIOD   78
1
  VOLUMETRIC BUDGET FOR ENTIRE MODEL AT END OF TIME STEP  1 IN STRESS PERIOD  78
  ------------------------------------------------------------------------------

     CUMULATIVE VOLUMES      L**3       RATES FOR THIS TIME STEP      L**3/T
     ------------------                 ------------------------

           IN:                                      IN:
           ---                                      ---
             STORAGE =       8.9315E-14               STORAGE =       5.7997E-13
       CONSTANT HEAD =           0.0000         CONSTANT HEAD =           0.0000
               WELLS =           0.1560                 WELLS =           1.0000

            TOTAL IN =           0.1560              TOTAL IN =           1.0000

          OUT:                                     OUT:
          ----                                     ----
             STORAGE =       9.3203E-14               STORAGE =       6.0521E-13
       CONSTANT HEAD =           0.1560         CONSTANT HEAD =           1.0000
               WELLS =           0.0000                 WELLS =           0.0000

           TOTAL OUT =           0.1560             TOTAL OUT =           1.0000

            IN - OUT =           0.0000              IN - OUT =           0.0000

 PERCENT DISCREPANCY =           0.00     PERCENT DISCREPANCY =           0.00






          TIME SUMMARY AT END OF TIME STEP   1 IN STRESS PERIOD   78
                    SECONDS     MINUTES      HOURS       DAYS        YEARS
                    -----------------------------------------------------------
   TIME STEP LENGTH  172.80      2.8800     4.80000E-02 2.00000E-03 5.47570E-06
 STRESS PERIOD TIME  172.80      2.8800     4.80000E-02 2.00000E-03 5.47570E-06
         TOTAL TIME  13478.      224.64      3.7440     0.15600     4.27105E-04
1
1
                            STRESS PERIOD NO.   79, LENGTH =  0.2000000E-02
                            -----------------------------------------------

                              NUMBER OF TIME STEPS =     1

                               MULTIPLIER FOR DELT =     1.000

                            INITIAL TIME STEP SIZE =  0.2000000E-02

 WELL NO.  LAYER   ROW   COL   STRESS RATE         
 --------------------------------------------------
      1      1      1      1       1.000    

      1 WELL
 
 SOLVING FOR HEAD 

 OUTPUT CONTROL FOR STRESS PERIOD   79   TIME STEP   1
    SAVE HEAD FOR ALL LAYERS
    SAVE BUDGET
 UBDSV1 SAVING "         STORAGE" ON UNIT  31 AT TIME STEP  1, STRESS PERIOD  79
 UBDSV2 SAVING "   CONSTANT HEAD" ON UNIT  31 AT TIME STEP  1, STRESS PERIOD  79
 UBDSV1 SAVING "FLOW RIGHT FACE " ON UNIT  31 AT TIME STEP  1, STRESS PERIOD  79
 UBDSV4 SAVING "           WELLS" ON UNIT  31 AT TIME STEP  1, STRESS PERIOD  79

 SAVING SATURATED THICKNESS AND FLOW TERMS ON UNIT  333 FOR MT3DMS
 BY THE LINK-MT3DMS PACKAGE V6.3 AT TIME STEP    1, STRESS PERIOD   79


 HEAD WILL BE SAVED ON UNIT   30 AT END OF TIME STEP   1, STRESS PERIOD   79
1
  VOLUMETRIC BUDGET FOR ENTIRE MODEL AT END OF TIME STEP  1 IN STRESS PERIOD  79
  ------------------------------------------------------------------------------

     CUMULATIVE VOLUMES      L**3       RATES FOR THIS TIME STEP      L**3/T
     ------------------                 ------------------------

           IN:                                      IN:
           ---                                      ---
             STORAGE =       9.0475E-14               STORAGE =       5.7997E-13
       CONSTANT HEAD =           0.0000         CONSTANT HEAD =           0.0000
               WELLS =           0.1580                 WELLS =           1.0000

            TOTAL IN =           0.1580              TOTAL IN =           1.0000

          OUT:                                     OUT:
          ----                                     ----
             STORAGE =       9.4413E-14               STORAGE =       6.0521E-13
       CONSTANT HEAD =           0.1580         CONSTANT HEAD =           1.0000
               WELLS =           0.0000                 WELLS =           0.0000

           TOTAL OUT =           0.1580             TOTAL OUT =           1.0000

            IN - OUT =           0.0000              IN - OUT =           0.0000

 PERCENT DISCREPANCY =           0.00     PERCENT DISCREPANCY =           0.00






          TIME SUMMARY AT END OF TIME STEP   1 IN STRESS PERIOD   79
                    SECONDS     MINUTES      HOURS       DAYS        YEARS
                    -----------------------------------------------------------
   TIME STEP LENGTH  172.80      2.8800     4.80000E-02 2.00000E-03 5.47570E-06
 STRESS PERIOD TIME  172.80      2.8800     4.80000E-02 2.00000E-03 5.47570E-06
         TOTAL TIME  13651.      227.52      3.7920     0.15800     4.32580E-04
1
1
                            STRESS PERIOD NO.   80, LENGTH =  0.2000000E-02
                            -----------------------------------------------

                              NUMBER OF TIME STEPS =     1

                               MULTIPLIER FOR DELT =     1.000

                            INITIAL TIME STEP SIZE =  0.2000000E-02

 WELL NO.  LAYER   ROW   COL   STRESS RATE         
 --------------------------------------------------
      1      1      1      1       1.000    

      1 WELL
 
 SOLVING FOR HEAD 

 OUTPUT CONTROL FOR STRESS PERIOD   80   TIME STEP   1
    SAVE HEAD FOR ALL LAYERS
    SAVE BUDGET
 UBDSV1 SAVING "         STORAGE" ON UNIT  31 AT TIME STEP  1, STRESS PERIOD  80
 UBDSV2 SAVING "   CONSTANT HEAD" ON UNIT  31 AT TIME STEP  1, STRESS PERIOD  80
 UBDSV1 SAVING "FLOW RIGHT FACE " ON UNIT  31 AT TIME STEP  1, STRESS PERIOD  80
 UBDSV4 SAVING "           WELLS" ON UNIT  31 AT TIME STEP  1, STRESS PERIOD  80

 SAVING SATURATED THICKNESS AND FLOW TERMS ON UNIT  333 FOR MT3DMS
 BY THE LINK-MT3DMS PACKAGE V6.3 AT TIME STEP    1, STRESS PERIOD   80


 HEAD WILL BE SAVED ON UNIT   30 AT END OF TIME STEP   1, STRESS PERIOD   80
1
  VOLUMETRIC BUDGET FOR ENTIRE MODEL AT END OF TIME STEP  1 IN STRESS PERIOD  80
  ------------------------------------------------------------------------------

     CUMULATIVE VOLUMES      L**3       RATES FOR THIS TIME STEP      L**3/T
     ------------------                 ------------------------

           IN:                                      IN:
           ---                                      ---
             STORAGE =       9.1635E-14               STORAGE =       5.7997E-13
       CONSTANT HEAD =           0.0000         CONSTANT HEAD =           0.0000
               WELLS =           0.1600                 WELLS =           1.0000

            TOTAL IN =           0.1600              TOTAL IN =           1.0000

          OUT:                                     OUT:
          ----                                     ----
             STORAGE =       9.5624E-14               STORAGE =       6.0521E-13
       CONSTANT HEAD =           0.1600         CONSTANT HEAD =           1.0000
               WELLS =           0.0000                 WELLS =           0.0000

           TOTAL OUT =           0.1600             TOTAL OUT =           1.0000

            IN - OUT =           0.0000              IN - OUT =           0.0000

 PERCENT DISCREPANCY =           0.00     PERCENT DISCREPANCY =           0.00






          TIME SUMMARY AT END OF TIME STEP   1 IN STRESS PERIOD   80
                    SECONDS     MINUTES      HOURS       DAYS        YEARS
                    -----------------------------------------------------------
   TIME STEP LENGTH  172.80      2.8800     4.80000E-02 2.00000E-03 5.47570E-06
 STRESS PERIOD TIME  172.80      2.8800     4.80000E-02 2.00000E-03 5.47570E-06
         TOTAL TIME  13824.      230.40      3.8400     0.16000     4.38056E-04
1
1
                            STRESS PERIOD NO.   81, LENGTH =  0.2000000E-02
                            -----------------------------------------------

                              NUMBER OF TIME STEPS =     1

                               MULTIPLIER FOR DELT =     1.000

                            INITIAL TIME STEP SIZE =  0.2000000E-02

 WELL NO.  LAYER   ROW   COL   STRESS RATE         
 --------------------------------------------------
      1      1      1      1       1.000    

      1 WELL
 
 SOLVING FOR HEAD 

 OUTPUT CONTROL FOR STRESS PERIOD   81   TIME STEP   1
    SAVE HEAD FOR ALL LAYERS
    SAVE BUDGET
 UBDSV1 SAVING "         STORAGE" ON UNIT  31 AT TIME STEP  1, STRESS PERIOD  81
 UBDSV2 SAVING "   CONSTANT HEAD" ON UNIT  31 AT TIME STEP  1, STRESS PERIOD  81
 UBDSV1 SAVING "FLOW RIGHT FACE " ON UNIT  31 AT TIME STEP  1, STRESS PERIOD  81
 UBDSV4 SAVING "           WELLS" ON UNIT  31 AT TIME STEP  1, STRESS PERIOD  81

 SAVING SATURATED THICKNESS AND FLOW TERMS ON UNIT  333 FOR MT3DMS
 BY THE LINK-MT3DMS PACKAGE V6.3 AT TIME STEP    1, STRESS PERIOD   81


 HEAD WILL BE SAVED ON UNIT   30 AT END OF TIME STEP   1, STRESS PERIOD   81
1
  VOLUMETRIC BUDGET FOR ENTIRE MODEL AT END OF TIME STEP  1 IN STRESS PERIOD  81
  ------------------------------------------------------------------------------

     CUMULATIVE VOLUMES      L**3       RATES FOR THIS TIME STEP      L**3/T
     ------------------                 ------------------------

           IN:                                      IN:
           ---                                      ---
             STORAGE =       9.2795E-14               STORAGE =       5.7997E-13
       CONSTANT HEAD =           0.0000         CONSTANT HEAD =           0.0000
               WELLS =           0.1620                 WELLS =           1.0000

            TOTAL IN =           0.1620              TOTAL IN =           1.0000

          OUT:                                     OUT:
          ----                                     ----
             STORAGE =       9.6834E-14               STORAGE =       6.0521E-13
       CONSTANT HEAD =           0.1620         CONSTANT HEAD =           1.0000
               WELLS =           0.0000                 WELLS =           0.0000

           TOTAL OUT =           0.1620             TOTAL OUT =           1.0000

            IN - OUT =           0.0000              IN - OUT =           0.0000

 PERCENT DISCREPANCY =           0.00     PERCENT DISCREPANCY =           0.00






          TIME SUMMARY AT END OF TIME STEP   1 IN STRESS PERIOD   81
                    SECONDS     MINUTES      HOURS       DAYS        YEARS
                    -----------------------------------------------------------
   TIME STEP LENGTH  172.80      2.8800     4.80000E-02 2.00000E-03 5.47570E-06
 STRESS PERIOD TIME  172.80      2.8800     4.80000E-02 2.00000E-03 5.47570E-06
         TOTAL TIME  13997.      233.28      3.8880     0.16200     4.43532E-04
1
1
                            STRESS PERIOD NO.   82, LENGTH =  0.2000000E-02
                            -----------------------------------------------

                              NUMBER OF TIME STEPS =     1

                               MULTIPLIER FOR DELT =     1.000

                            INITIAL TIME STEP SIZE =  0.2000000E-02

 WELL NO.  LAYER   ROW   COL   STRESS RATE         
 --------------------------------------------------
      1      1      1      1       1.000    

      1 WELL
 
 SOLVING FOR HEAD 

 OUTPUT CONTROL FOR STRESS PERIOD   82   TIME STEP   1
    SAVE HEAD FOR ALL LAYERS
    SAVE BUDGET
 UBDSV1 SAVING "         STORAGE" ON UNIT  31 AT TIME STEP  1, STRESS PERIOD  82
 UBDSV2 SAVING "   CONSTANT HEAD" ON UNIT  31 AT TIME STEP  1, STRESS PERIOD  82
 UBDSV1 SAVING "FLOW RIGHT FACE " ON UNIT  31 AT TIME STEP  1, STRESS PERIOD  82
 UBDSV4 SAVING "           WELLS" ON UNIT  31 AT TIME STEP  1, STRESS PERIOD  82

 SAVING SATURATED THICKNESS AND FLOW TERMS ON UNIT  333 FOR MT3DMS
 BY THE LINK-MT3DMS PACKAGE V6.3 AT TIME STEP    1, STRESS PERIOD   82


 HEAD WILL BE SAVED ON UNIT   30 AT END OF TIME STEP   1, STRESS PERIOD   82
1
  VOLUMETRIC BUDGET FOR ENTIRE MODEL AT END OF TIME STEP  1 IN STRESS PERIOD  82
  ------------------------------------------------------------------------------

     CUMULATIVE VOLUMES      L**3       RATES FOR THIS TIME STEP      L**3/T
     ------------------                 ------------------------

           IN:                                      IN:
           ---                                      ---
             STORAGE =       9.3955E-14               STORAGE =       5.7997E-13
       CONSTANT HEAD =           0.0000         CONSTANT HEAD =           0.0000
               WELLS =           0.1640                 WELLS =           1.0000

            TOTAL IN =           0.1640              TOTAL IN =           1.0000

          OUT:                                     OUT:
          ----                                     ----
             STORAGE =       9.8045E-14               STORAGE =       6.0521E-13
       CONSTANT HEAD =           0.1640         CONSTANT HEAD =           1.0000
               WELLS =           0.0000                 WELLS =           0.0000

           TOTAL OUT =           0.1640             TOTAL OUT =           1.0000

            IN - OUT =           0.0000              IN - OUT =           0.0000

 PERCENT DISCREPANCY =           0.00     PERCENT DISCREPANCY =           0.00






          TIME SUMMARY AT END OF TIME STEP   1 IN STRESS PERIOD   82
                    SECONDS     MINUTES      HOURS       DAYS        YEARS
                    -----------------------------------------------------------
   TIME STEP LENGTH  172.80      2.8800     4.80000E-02 2.00000E-03 5.47570E-06
 STRESS PERIOD TIME  172.80      2.8800     4.80000E-02 2.00000E-03 5.47570E-06
         TOTAL TIME  14170.      236.16      3.9360     0.16400     4.49007E-04
1
1
                            STRESS PERIOD NO.   83, LENGTH =  0.2000000E-02
                            -----------------------------------------------

                              NUMBER OF TIME STEPS =     1

                               MULTIPLIER FOR DELT =     1.000

                            INITIAL TIME STEP SIZE =  0.2000000E-02

 WELL NO.  LAYER   ROW   COL   STRESS RATE         
 --------------------------------------------------
      1      1      1      1       1.000    

      1 WELL
 
 SOLVING FOR HEAD 

 OUTPUT CONTROL FOR STRESS PERIOD   83   TIME STEP   1
    SAVE HEAD FOR ALL LAYERS
    SAVE BUDGET
 UBDSV1 SAVING "         STORAGE" ON UNIT  31 AT TIME STEP  1, STRESS PERIOD  83
 UBDSV2 SAVING "   CONSTANT HEAD" ON UNIT  31 AT TIME STEP  1, STRESS PERIOD  83
 UBDSV1 SAVING "FLOW RIGHT FACE " ON UNIT  31 AT TIME STEP  1, STRESS PERIOD  83
 UBDSV4 SAVING "           WELLS" ON UNIT  31 AT TIME STEP  1, STRESS PERIOD  83

 SAVING SATURATED THICKNESS AND FLOW TERMS ON UNIT  333 FOR MT3DMS
 BY THE LINK-MT3DMS PACKAGE V6.3 AT TIME STEP    1, STRESS PERIOD   83


 HEAD WILL BE SAVED ON UNIT   30 AT END OF TIME STEP   1, STRESS PERIOD   83
1
  VOLUMETRIC BUDGET FOR ENTIRE MODEL AT END OF TIME STEP  1 IN STRESS PERIOD  83
  ------------------------------------------------------------------------------

     CUMULATIVE VOLUMES      L**3       RATES FOR THIS TIME STEP      L**3/T
     ------------------                 ------------------------

           IN:                                      IN:
           ---                                      ---
             STORAGE =       9.5115E-14               STORAGE =       5.7997E-13
       CONSTANT HEAD =           0.0000         CONSTANT HEAD =           0.0000
               WELLS =           0.1660                 WELLS =           1.0000

            TOTAL IN =           0.1660              TOTAL IN =           1.0000

          OUT:                                     OUT:
          ----                                     ----
             STORAGE =       9.9255E-14               STORAGE =       6.0521E-13
       CONSTANT HEAD =           0.1660         CONSTANT HEAD =           1.0000
               WELLS =           0.0000                 WELLS =           0.0000

           TOTAL OUT =           0.1660             TOTAL OUT =           1.0000

            IN - OUT =           0.0000              IN - OUT =           0.0000

 PERCENT DISCREPANCY =           0.00     PERCENT DISCREPANCY =           0.00






          TIME SUMMARY AT END OF TIME STEP   1 IN STRESS PERIOD   83
                    SECONDS     MINUTES      HOURS       DAYS        YEARS
                    -----------------------------------------------------------
   TIME STEP LENGTH  172.80      2.8800     4.80000E-02 2.00000E-03 5.47570E-06
 STRESS PERIOD TIME  172.80      2.8800     4.80000E-02 2.00000E-03 5.47570E-06
         TOTAL TIME  14342.      239.04      3.9840     0.16600     4.54483E-04
1
1
                            STRESS PERIOD NO.   84, LENGTH =  0.2000000E-02
                            -----------------------------------------------

                              NUMBER OF TIME STEPS =     1

                               MULTIPLIER FOR DELT =     1.000

                            INITIAL TIME STEP SIZE =  0.2000000E-02

 WELL NO.  LAYER   ROW   COL   STRESS RATE         
 --------------------------------------------------
      1      1      1      1       1.000    

      1 WELL
 
 SOLVING FOR HEAD 

 OUTPUT CONTROL FOR STRESS PERIOD   84   TIME STEP   1
    SAVE HEAD FOR ALL LAYERS
    SAVE BUDGET
 UBDSV1 SAVING "         STORAGE" ON UNIT  31 AT TIME STEP  1, STRESS PERIOD  84
 UBDSV2 SAVING "   CONSTANT HEAD" ON UNIT  31 AT TIME STEP  1, STRESS PERIOD  84
 UBDSV1 SAVING "FLOW RIGHT FACE " ON UNIT  31 AT TIME STEP  1, STRESS PERIOD  84
 UBDSV4 SAVING "           WELLS" ON UNIT  31 AT TIME STEP  1, STRESS PERIOD  84

 SAVING SATURATED THICKNESS AND FLOW TERMS ON UNIT  333 FOR MT3DMS
 BY THE LINK-MT3DMS PACKAGE V6.3 AT TIME STEP    1, STRESS PERIOD   84


 HEAD WILL BE SAVED ON UNIT   30 AT END OF TIME STEP   1, STRESS PERIOD   84
1
  VOLUMETRIC BUDGET FOR ENTIRE MODEL AT END OF TIME STEP  1 IN STRESS PERIOD  84
  ------------------------------------------------------------------------------

     CUMULATIVE VOLUMES      L**3       RATES FOR THIS TIME STEP      L**3/T
     ------------------                 ------------------------

           IN:                                      IN:
           ---                                      ---
             STORAGE =       9.6275E-14               STORAGE =       5.7997E-13
       CONSTANT HEAD =           0.0000         CONSTANT HEAD =           0.0000
               WELLS =           0.1680                 WELLS =           1.0000

            TOTAL IN =           0.1680              TOTAL IN =           1.0000

          OUT:                                     OUT:
          ----                                     ----
             STORAGE =       1.0047E-13               STORAGE =       6.0521E-13
       CONSTANT HEAD =           0.1680         CONSTANT HEAD =           1.0000
               WELLS =           0.0000                 WELLS =           0.0000

           TOTAL OUT =           0.1680             TOTAL OUT =           1.0000

            IN - OUT =           0.0000              IN - OUT =           0.0000

 PERCENT DISCREPANCY =           0.00     PERCENT DISCREPANCY =           0.00






          TIME SUMMARY AT END OF TIME STEP   1 IN STRESS PERIOD   84
                    SECONDS     MINUTES      HOURS       DAYS        YEARS
                    -----------------------------------------------------------
   TIME STEP LENGTH  172.80      2.8800     4.80000E-02 2.00000E-03 5.47570E-06
 STRESS PERIOD TIME  172.80      2.8800     4.80000E-02 2.00000E-03 5.47570E-06
         TOTAL TIME  14515.      241.92      4.0320     0.16800     4.59959E-04
1
1
                            STRESS PERIOD NO.   85, LENGTH =  0.2000000E-02
                            -----------------------------------------------

                              NUMBER OF TIME STEPS =     1

                               MULTIPLIER FOR DELT =     1.000

                            INITIAL TIME STEP SIZE =  0.2000000E-02

 WELL NO.  LAYER   ROW   COL   STRESS RATE         
 --------------------------------------------------
      1      1      1      1       1.000    

      1 WELL
 
 SOLVING FOR HEAD 

 OUTPUT CONTROL FOR STRESS PERIOD   85   TIME STEP   1
    SAVE HEAD FOR ALL LAYERS
    SAVE BUDGET
 UBDSV1 SAVING "         STORAGE" ON UNIT  31 AT TIME STEP  1, STRESS PERIOD  85
 UBDSV2 SAVING "   CONSTANT HEAD" ON UNIT  31 AT TIME STEP  1, STRESS PERIOD  85
 UBDSV1 SAVING "FLOW RIGHT FACE " ON UNIT  31 AT TIME STEP  1, STRESS PERIOD  85
 UBDSV4 SAVING "           WELLS" ON UNIT  31 AT TIME STEP  1, STRESS PERIOD  85

 SAVING SATURATED THICKNESS AND FLOW TERMS ON UNIT  333 FOR MT3DMS
 BY THE LINK-MT3DMS PACKAGE V6.3 AT TIME STEP    1, STRESS PERIOD   85


 HEAD WILL BE SAVED ON UNIT   30 AT END OF TIME STEP   1, STRESS PERIOD   85
1
  VOLUMETRIC BUDGET FOR ENTIRE MODEL AT END OF TIME STEP  1 IN STRESS PERIOD  85
  ------------------------------------------------------------------------------

     CUMULATIVE VOLUMES      L**3       RATES FOR THIS TIME STEP      L**3/T
     ------------------                 ------------------------

           IN:                                      IN:
           ---                                      ---
             STORAGE =       9.7434E-14               STORAGE =       5.7997E-13
       CONSTANT HEAD =           0.0000         CONSTANT HEAD =           0.0000
               WELLS =           0.1700                 WELLS =           1.0000

            TOTAL IN =           0.1700              TOTAL IN =           1.0000

          OUT:                                     OUT:
          ----                                     ----
             STORAGE =       1.0168E-13               STORAGE =       6.0521E-13
       CONSTANT HEAD =           0.1700         CONSTANT HEAD =           1.0000
               WELLS =           0.0000                 WELLS =           0.0000

           TOTAL OUT =           0.1700             TOTAL OUT =           1.0000

            IN - OUT =           0.0000              IN - OUT =           0.0000

 PERCENT DISCREPANCY =           0.00     PERCENT DISCREPANCY =           0.00






          TIME SUMMARY AT END OF TIME STEP   1 IN STRESS PERIOD   85
                    SECONDS     MINUTES      HOURS       DAYS        YEARS
                    -----------------------------------------------------------
   TIME STEP LENGTH  172.80      2.8800     4.80000E-02 2.00000E-03 5.47570E-06
 STRESS PERIOD TIME  172.80      2.8800     4.80000E-02 2.00000E-03 5.47570E-06
         TOTAL TIME  14688.      244.80      4.0800     0.17000     4.65435E-04
1
1
                            STRESS PERIOD NO.   86, LENGTH =  0.2000000E-02
                            -----------------------------------------------

                              NUMBER OF TIME STEPS =     1

                               MULTIPLIER FOR DELT =     1.000

                            INITIAL TIME STEP SIZE =  0.2000000E-02

 WELL NO.  LAYER   ROW   COL   STRESS RATE         
 --------------------------------------------------
      1      1      1      1       1.000    

      1 WELL
 
 SOLVING FOR HEAD 

 OUTPUT CONTROL FOR STRESS PERIOD   86   TIME STEP   1
    SAVE HEAD FOR ALL LAYERS
    SAVE BUDGET
 UBDSV1 SAVING "         STORAGE" ON UNIT  31 AT TIME STEP  1, STRESS PERIOD  86
 UBDSV2 SAVING "   CONSTANT HEAD" ON UNIT  31 AT TIME STEP  1, STRESS PERIOD  86
 UBDSV1 SAVING "FLOW RIGHT FACE " ON UNIT  31 AT TIME STEP  1, STRESS PERIOD  86
 UBDSV4 SAVING "           WELLS" ON UNIT  31 AT TIME STEP  1, STRESS PERIOD  86

 SAVING SATURATED THICKNESS AND FLOW TERMS ON UNIT  333 FOR MT3DMS
 BY THE LINK-MT3DMS PACKAGE V6.3 AT TIME STEP    1, STRESS PERIOD   86


 HEAD WILL BE SAVED ON UNIT   30 AT END OF TIME STEP   1, STRESS PERIOD   86
1
  VOLUMETRIC BUDGET FOR ENTIRE MODEL AT END OF TIME STEP  1 IN STRESS PERIOD  86
  ------------------------------------------------------------------------------

     CUMULATIVE VOLUMES      L**3       RATES FOR THIS TIME STEP      L**3/T
     ------------------                 ------------------------

           IN:                                      IN:
           ---                                      ---
             STORAGE =       9.8594E-14               STORAGE =       5.7997E-13
       CONSTANT HEAD =           0.0000         CONSTANT HEAD =           0.0000
               WELLS =           0.1720                 WELLS =           1.0000

            TOTAL IN =           0.1720              TOTAL IN =           1.0000

          OUT:                                     OUT:
          ----                                     ----
             STORAGE =       1.0289E-13               STORAGE =       6.0521E-13
       CONSTANT HEAD =           0.1720         CONSTANT HEAD =           1.0000
               WELLS =           0.0000                 WELLS =           0.0000

           TOTAL OUT =           0.1720             TOTAL OUT =           1.0000

            IN - OUT =           0.0000              IN - OUT =           0.0000

 PERCENT DISCREPANCY =           0.00     PERCENT DISCREPANCY =           0.00






          TIME SUMMARY AT END OF TIME STEP   1 IN STRESS PERIOD   86
                    SECONDS     MINUTES      HOURS       DAYS        YEARS
                    -----------------------------------------------------------
   TIME STEP LENGTH  172.80      2.8800     4.80000E-02 2.00000E-03 5.47570E-06
 STRESS PERIOD TIME  172.80      2.8800     4.80000E-02 2.00000E-03 5.47570E-06
         TOTAL TIME  14861.      247.68      4.1280     0.17200     4.70910E-04
1
1
                            STRESS PERIOD NO.   87, LENGTH =  0.2000000E-02
                            -----------------------------------------------

                              NUMBER OF TIME STEPS =     1

                               MULTIPLIER FOR DELT =     1.000

                            INITIAL TIME STEP SIZE =  0.2000000E-02

 WELL NO.  LAYER   ROW   COL   STRESS RATE         
 --------------------------------------------------
      1      1      1      1       1.000    

      1 WELL
 
 SOLVING FOR HEAD 

 OUTPUT CONTROL FOR STRESS PERIOD   87   TIME STEP   1
    SAVE HEAD FOR ALL LAYERS
    SAVE BUDGET
 UBDSV1 SAVING "         STORAGE" ON UNIT  31 AT TIME STEP  1, STRESS PERIOD  87
 UBDSV2 SAVING "   CONSTANT HEAD" ON UNIT  31 AT TIME STEP  1, STRESS PERIOD  87
 UBDSV1 SAVING "FLOW RIGHT FACE " ON UNIT  31 AT TIME STEP  1, STRESS PERIOD  87
 UBDSV4 SAVING "           WELLS" ON UNIT  31 AT TIME STEP  1, STRESS PERIOD  87

 SAVING SATURATED THICKNESS AND FLOW TERMS ON UNIT  333 FOR MT3DMS
 BY THE LINK-MT3DMS PACKAGE V6.3 AT TIME STEP    1, STRESS PERIOD   87


 HEAD WILL BE SAVED ON UNIT   30 AT END OF TIME STEP   1, STRESS PERIOD   87
1
  VOLUMETRIC BUDGET FOR ENTIRE MODEL AT END OF TIME STEP  1 IN STRESS PERIOD  87
  ------------------------------------------------------------------------------

     CUMULATIVE VOLUMES      L**3       RATES FOR THIS TIME STEP      L**3/T
     ------------------                 ------------------------

           IN:                                      IN:
           ---                                      ---
             STORAGE =       9.9754E-14               STORAGE =       5.7997E-13
       CONSTANT HEAD =           0.0000         CONSTANT HEAD =           0.0000
               WELLS =           0.1740                 WELLS =           1.0000

            TOTAL IN =           0.1740              TOTAL IN =           1.0000

          OUT:                                     OUT:
          ----                                     ----
             STORAGE =       1.0410E-13               STORAGE =       6.0521E-13
       CONSTANT HEAD =           0.1740         CONSTANT HEAD =           1.0000
               WELLS =           0.0000                 WELLS =           0.0000

           TOTAL OUT =           0.1740             TOTAL OUT =           1.0000

            IN - OUT =           0.0000              IN - OUT =           0.0000

 PERCENT DISCREPANCY =           0.00     PERCENT DISCREPANCY =           0.00






          TIME SUMMARY AT END OF TIME STEP   1 IN STRESS PERIOD   87
                    SECONDS     MINUTES      HOURS       DAYS        YEARS
                    -----------------------------------------------------------
   TIME STEP LENGTH  172.80      2.8800     4.80000E-02 2.00000E-03 5.47570E-06
 STRESS PERIOD TIME  172.80      2.8800     4.80000E-02 2.00000E-03 5.47570E-06
         TOTAL TIME  15034.      250.56      4.1760     0.17400     4.76386E-04
1
1
                            STRESS PERIOD NO.   88, LENGTH =  0.2000000E-02
                            -----------------------------------------------

                              NUMBER OF TIME STEPS =     1

                               MULTIPLIER FOR DELT =     1.000

                            INITIAL TIME STEP SIZE =  0.2000000E-02

 WELL NO.  LAYER   ROW   COL   STRESS RATE         
 --------------------------------------------------
      1      1      1      1       1.000    

      1 WELL
 
 SOLVING FOR HEAD 

 OUTPUT CONTROL FOR STRESS PERIOD   88   TIME STEP   1
    SAVE HEAD FOR ALL LAYERS
    SAVE BUDGET
 UBDSV1 SAVING "         STORAGE" ON UNIT  31 AT TIME STEP  1, STRESS PERIOD  88
 UBDSV2 SAVING "   CONSTANT HEAD" ON UNIT  31 AT TIME STEP  1, STRESS PERIOD  88
 UBDSV1 SAVING "FLOW RIGHT FACE " ON UNIT  31 AT TIME STEP  1, STRESS PERIOD  88
 UBDSV4 SAVING "           WELLS" ON UNIT  31 AT TIME STEP  1, STRESS PERIOD  88

 SAVING SATURATED THICKNESS AND FLOW TERMS ON UNIT  333 FOR MT3DMS
 BY THE LINK-MT3DMS PACKAGE V6.3 AT TIME STEP    1, STRESS PERIOD   88


 HEAD WILL BE SAVED ON UNIT   30 AT END OF TIME STEP   1, STRESS PERIOD   88
1
  VOLUMETRIC BUDGET FOR ENTIRE MODEL AT END OF TIME STEP  1 IN STRESS PERIOD  88
  ------------------------------------------------------------------------------

     CUMULATIVE VOLUMES      L**3       RATES FOR THIS TIME STEP      L**3/T
     ------------------                 ------------------------

           IN:                                      IN:
           ---                                      ---
             STORAGE =       1.0091E-13               STORAGE =       5.7997E-13
       CONSTANT HEAD =           0.0000         CONSTANT HEAD =           0.0000
               WELLS =           0.1760                 WELLS =           1.0000

            TOTAL IN =           0.1760              TOTAL IN =           1.0000

          OUT:                                     OUT:
          ----                                     ----
             STORAGE =       1.0531E-13               STORAGE =       6.0521E-13
       CONSTANT HEAD =           0.1760         CONSTANT HEAD =           1.0000
               WELLS =           0.0000                 WELLS =           0.0000

           TOTAL OUT =           0.1760             TOTAL OUT =           1.0000

            IN - OUT =           0.0000              IN - OUT =           0.0000

 PERCENT DISCREPANCY =           0.00     PERCENT DISCREPANCY =           0.00






          TIME SUMMARY AT END OF TIME STEP   1 IN STRESS PERIOD   88
                    SECONDS     MINUTES      HOURS       DAYS        YEARS
                    -----------------------------------------------------------
   TIME STEP LENGTH  172.80      2.8800     4.80000E-02 2.00000E-03 5.47570E-06
 STRESS PERIOD TIME  172.80      2.8800     4.80000E-02 2.00000E-03 5.47570E-06
         TOTAL TIME  15206.      253.44      4.2240     0.17600     4.81862E-04
1
1
                            STRESS PERIOD NO.   89, LENGTH =  0.2000000E-02
                            -----------------------------------------------

                              NUMBER OF TIME STEPS =     1

                               MULTIPLIER FOR DELT =     1.000

                            INITIAL TIME STEP SIZE =  0.2000000E-02

 WELL NO.  LAYER   ROW   COL   STRESS RATE         
 --------------------------------------------------
      1      1      1      1       1.000    

      1 WELL
 
 SOLVING FOR HEAD 

 OUTPUT CONTROL FOR STRESS PERIOD   89   TIME STEP   1
    SAVE HEAD FOR ALL LAYERS
    SAVE BUDGET
 UBDSV1 SAVING "         STORAGE" ON UNIT  31 AT TIME STEP  1, STRESS PERIOD  89
 UBDSV2 SAVING "   CONSTANT HEAD" ON UNIT  31 AT TIME STEP  1, STRESS PERIOD  89
 UBDSV1 SAVING "FLOW RIGHT FACE " ON UNIT  31 AT TIME STEP  1, STRESS PERIOD  89
 UBDSV4 SAVING "           WELLS" ON UNIT  31 AT TIME STEP  1, STRESS PERIOD  89

 SAVING SATURATED THICKNESS AND FLOW TERMS ON UNIT  333 FOR MT3DMS
 BY THE LINK-MT3DMS PACKAGE V6.3 AT TIME STEP    1, STRESS PERIOD   89


 HEAD WILL BE SAVED ON UNIT   30 AT END OF TIME STEP   1, STRESS PERIOD   89
1
  VOLUMETRIC BUDGET FOR ENTIRE MODEL AT END OF TIME STEP  1 IN STRESS PERIOD  89
  ------------------------------------------------------------------------------

     CUMULATIVE VOLUMES      L**3       RATES FOR THIS TIME STEP      L**3/T
     ------------------                 ------------------------

           IN:                                      IN:
           ---                                      ---
             STORAGE =       1.0207E-13               STORAGE =       5.7997E-13
       CONSTANT HEAD =           0.0000         CONSTANT HEAD =           0.0000
               WELLS =           0.1780                 WELLS =           1.0000

            TOTAL IN =           0.1780              TOTAL IN =           1.0000

          OUT:                                     OUT:
          ----                                     ----
             STORAGE =       1.0652E-13               STORAGE =       6.0521E-13
       CONSTANT HEAD =           0.1780         CONSTANT HEAD =           1.0000
               WELLS =           0.0000                 WELLS =           0.0000

           TOTAL OUT =           0.1780             TOTAL OUT =           1.0000

            IN - OUT =           0.0000              IN - OUT =           0.0000

 PERCENT DISCREPANCY =           0.00     PERCENT DISCREPANCY =           0.00






          TIME SUMMARY AT END OF TIME STEP   1 IN STRESS PERIOD   89
                    SECONDS     MINUTES      HOURS       DAYS        YEARS
                    -----------------------------------------------------------
   TIME STEP LENGTH  172.80      2.8800     4.80000E-02 2.00000E-03 5.47570E-06
 STRESS PERIOD TIME  172.80      2.8800     4.80000E-02 2.00000E-03 5.47570E-06
         TOTAL TIME  15379.      256.32      4.2720     0.17800     4.87337E-04
1
1
                            STRESS PERIOD NO.   90, LENGTH =  0.2000000E-02
                            -----------------------------------------------

                              NUMBER OF TIME STEPS =     1

                               MULTIPLIER FOR DELT =     1.000

                            INITIAL TIME STEP SIZE =  0.2000000E-02

 WELL NO.  LAYER   ROW   COL   STRESS RATE         
 --------------------------------------------------
      1      1      1      1       1.000    

      1 WELL
 
 SOLVING FOR HEAD 

 OUTPUT CONTROL FOR STRESS PERIOD   90   TIME STEP   1
    SAVE HEAD FOR ALL LAYERS
    SAVE BUDGET
 UBDSV1 SAVING "         STORAGE" ON UNIT  31 AT TIME STEP  1, STRESS PERIOD  90
 UBDSV2 SAVING "   CONSTANT HEAD" ON UNIT  31 AT TIME STEP  1, STRESS PERIOD  90
 UBDSV1 SAVING "FLOW RIGHT FACE " ON UNIT  31 AT TIME STEP  1, STRESS PERIOD  90
 UBDSV4 SAVING "           WELLS" ON UNIT  31 AT TIME STEP  1, STRESS PERIOD  90

 SAVING SATURATED THICKNESS AND FLOW TERMS ON UNIT  333 FOR MT3DMS
 BY THE LINK-MT3DMS PACKAGE V6.3 AT TIME STEP    1, STRESS PERIOD   90


 HEAD WILL BE SAVED ON UNIT   30 AT END OF TIME STEP   1, STRESS PERIOD   90
1
  VOLUMETRIC BUDGET FOR ENTIRE MODEL AT END OF TIME STEP  1 IN STRESS PERIOD  90
  ------------------------------------------------------------------------------

     CUMULATIVE VOLUMES      L**3       RATES FOR THIS TIME STEP      L**3/T
     ------------------                 ------------------------

           IN:                                      IN:
           ---                                      ---
             STORAGE =       1.0323E-13               STORAGE =       5.7997E-13
       CONSTANT HEAD =           0.0000         CONSTANT HEAD =           0.0000
               WELLS =           0.1800                 WELLS =           1.0000

            TOTAL IN =           0.1800              TOTAL IN =           1.0000

          OUT:                                     OUT:
          ----                                     ----
             STORAGE =       1.0773E-13               STORAGE =       6.0521E-13
       CONSTANT HEAD =           0.1800         CONSTANT HEAD =           1.0000
               WELLS =           0.0000                 WELLS =           0.0000

           TOTAL OUT =           0.1800             TOTAL OUT =           1.0000

            IN - OUT =           0.0000              IN - OUT =           0.0000

 PERCENT DISCREPANCY =           0.00     PERCENT DISCREPANCY =           0.00






          TIME SUMMARY AT END OF TIME STEP   1 IN STRESS PERIOD   90
                    SECONDS     MINUTES      HOURS       DAYS        YEARS
                    -----------------------------------------------------------
   TIME STEP LENGTH  172.80      2.8800     4.80000E-02 2.00000E-03 5.47570E-06
 STRESS PERIOD TIME  172.80      2.8800     4.80000E-02 2.00000E-03 5.47570E-06
         TOTAL TIME  15552.      259.20      4.3200     0.18000     4.92813E-04
1
1
                            STRESS PERIOD NO.   91, LENGTH =  0.2000000E-02
                            -----------------------------------------------

                              NUMBER OF TIME STEPS =     1

                               MULTIPLIER FOR DELT =     1.000

                            INITIAL TIME STEP SIZE =  0.2000000E-02

 WELL NO.  LAYER   ROW   COL   STRESS RATE         
 --------------------------------------------------
      1      1      1      1       1.000    

      1 WELL
 
 SOLVING FOR HEAD 

 OUTPUT CONTROL FOR STRESS PERIOD   91   TIME STEP   1
    SAVE HEAD FOR ALL LAYERS
    SAVE BUDGET
 UBDSV1 SAVING "         STORAGE" ON UNIT  31 AT TIME STEP  1, STRESS PERIOD  91
 UBDSV2 SAVING "   CONSTANT HEAD" ON UNIT  31 AT TIME STEP  1, STRESS PERIOD  91
 UBDSV1 SAVING "FLOW RIGHT FACE " ON UNIT  31 AT TIME STEP  1, STRESS PERIOD  91
 UBDSV4 SAVING "           WELLS" ON UNIT  31 AT TIME STEP  1, STRESS PERIOD  91

 SAVING SATURATED THICKNESS AND FLOW TERMS ON UNIT  333 FOR MT3DMS
 BY THE LINK-MT3DMS PACKAGE V6.3 AT TIME STEP    1, STRESS PERIOD   91


 HEAD WILL BE SAVED ON UNIT   30 AT END OF TIME STEP   1, STRESS PERIOD   91
1
  VOLUMETRIC BUDGET FOR ENTIRE MODEL AT END OF TIME STEP  1 IN STRESS PERIOD  91
  ------------------------------------------------------------------------------

     CUMULATIVE VOLUMES      L**3       RATES FOR THIS TIME STEP      L**3/T
     ------------------                 ------------------------

           IN:                                      IN:
           ---                                      ---
             STORAGE =       1.0439E-13               STORAGE =       5.7997E-13
       CONSTANT HEAD =           0.0000         CONSTANT HEAD =           0.0000
               WELLS =           0.1820                 WELLS =           1.0000

            TOTAL IN =           0.1820              TOTAL IN =           1.0000

          OUT:                                     OUT:
          ----                                     ----
             STORAGE =       1.0894E-13               STORAGE =       6.0521E-13
       CONSTANT HEAD =           0.1820         CONSTANT HEAD =           1.0000
               WELLS =           0.0000                 WELLS =           0.0000

           TOTAL OUT =           0.1820             TOTAL OUT =           1.0000

            IN - OUT =           0.0000              IN - OUT =           0.0000

 PERCENT DISCREPANCY =           0.00     PERCENT DISCREPANCY =           0.00






          TIME SUMMARY AT END OF TIME STEP   1 IN STRESS PERIOD   91
                    SECONDS     MINUTES      HOURS       DAYS        YEARS
                    -----------------------------------------------------------
   TIME STEP LENGTH  172.80      2.8800     4.80000E-02 2.00000E-03 5.47570E-06
 STRESS PERIOD TIME  172.80      2.8800     4.80000E-02 2.00000E-03 5.47570E-06
         TOTAL TIME  15725.      262.08      4.3680     0.18200     4.98289E-04
1
1
                            STRESS PERIOD NO.   92, LENGTH =  0.2000000E-02
                            -----------------------------------------------

                              NUMBER OF TIME STEPS =     1

                               MULTIPLIER FOR DELT =     1.000

                            INITIAL TIME STEP SIZE =  0.2000000E-02

 WELL NO.  LAYER   ROW   COL   STRESS RATE         
 --------------------------------------------------
      1      1      1      1       1.000    

      1 WELL
 
 SOLVING FOR HEAD 

 OUTPUT CONTROL FOR STRESS PERIOD   92   TIME STEP   1
    SAVE HEAD FOR ALL LAYERS
    SAVE BUDGET
 UBDSV1 SAVING "         STORAGE" ON UNIT  31 AT TIME STEP  1, STRESS PERIOD  92
 UBDSV2 SAVING "   CONSTANT HEAD" ON UNIT  31 AT TIME STEP  1, STRESS PERIOD  92
 UBDSV1 SAVING "FLOW RIGHT FACE " ON UNIT  31 AT TIME STEP  1, STRESS PERIOD  92
 UBDSV4 SAVING "           WELLS" ON UNIT  31 AT TIME STEP  1, STRESS PERIOD  92

 SAVING SATURATED THICKNESS AND FLOW TERMS ON UNIT  333 FOR MT3DMS
 BY THE LINK-MT3DMS PACKAGE V6.3 AT TIME STEP    1, STRESS PERIOD   92


 HEAD WILL BE SAVED ON UNIT   30 AT END OF TIME STEP   1, STRESS PERIOD   92
1
  VOLUMETRIC BUDGET FOR ENTIRE MODEL AT END OF TIME STEP  1 IN STRESS PERIOD  92
  ------------------------------------------------------------------------------

     CUMULATIVE VOLUMES      L**3       RATES FOR THIS TIME STEP      L**3/T
     ------------------                 ------------------------

           IN:                                      IN:
           ---                                      ---
             STORAGE =       1.0555E-13               STORAGE =       5.7997E-13
       CONSTANT HEAD =           0.0000         CONSTANT HEAD =           0.0000
               WELLS =           0.1840                 WELLS =           1.0000

            TOTAL IN =           0.1840              TOTAL IN =           1.0000

          OUT:                                     OUT:
          ----                                     ----
             STORAGE =       1.1015E-13               STORAGE =       6.0521E-13
       CONSTANT HEAD =           0.1840         CONSTANT HEAD =           1.0000
               WELLS =           0.0000                 WELLS =           0.0000

           TOTAL OUT =           0.1840             TOTAL OUT =           1.0000

            IN - OUT =           0.0000              IN - OUT =           0.0000

 PERCENT DISCREPANCY =           0.00     PERCENT DISCREPANCY =           0.00






          TIME SUMMARY AT END OF TIME STEP   1 IN STRESS PERIOD   92
                    SECONDS     MINUTES      HOURS       DAYS        YEARS
                    -----------------------------------------------------------
   TIME STEP LENGTH  172.80      2.8800     4.80000E-02 2.00000E-03 5.47570E-06
 STRESS PERIOD TIME  172.80      2.8800     4.80000E-02 2.00000E-03 5.47570E-06
         TOTAL TIME  15898.      264.96      4.4160     0.18400     5.03765E-04
1
1
                            STRESS PERIOD NO.   93, LENGTH =  0.2000000E-02
                            -----------------------------------------------

                              NUMBER OF TIME STEPS =     1

                               MULTIPLIER FOR DELT =     1.000

                            INITIAL TIME STEP SIZE =  0.2000000E-02

 WELL NO.  LAYER   ROW   COL   STRESS RATE         
 --------------------------------------------------
      1      1      1      1       1.000    

      1 WELL
 
 SOLVING FOR HEAD 

 OUTPUT CONTROL FOR STRESS PERIOD   93   TIME STEP   1
    SAVE HEAD FOR ALL LAYERS
    SAVE BUDGET
 UBDSV1 SAVING "         STORAGE" ON UNIT  31 AT TIME STEP  1, STRESS PERIOD  93
 UBDSV2 SAVING "   CONSTANT HEAD" ON UNIT  31 AT TIME STEP  1, STRESS PERIOD  93
 UBDSV1 SAVING "FLOW RIGHT FACE " ON UNIT  31 AT TIME STEP  1, STRESS PERIOD  93
 UBDSV4 SAVING "           WELLS" ON UNIT  31 AT TIME STEP  1, STRESS PERIOD  93

 SAVING SATURATED THICKNESS AND FLOW TERMS ON UNIT  333 FOR MT3DMS
 BY THE LINK-MT3DMS PACKAGE V6.3 AT TIME STEP    1, STRESS PERIOD   93


 HEAD WILL BE SAVED ON UNIT   30 AT END OF TIME STEP   1, STRESS PERIOD   93
1
  VOLUMETRIC BUDGET FOR ENTIRE MODEL AT END OF TIME STEP  1 IN STRESS PERIOD  93
  ------------------------------------------------------------------------------

     CUMULATIVE VOLUMES      L**3       RATES FOR THIS TIME STEP      L**3/T
     ------------------                 ------------------------

           IN:                                      IN:
           ---                                      ---
             STORAGE =       1.0671E-13               STORAGE =       5.7997E-13
       CONSTANT HEAD =           0.0000         CONSTANT HEAD =           0.0000
               WELLS =           0.1860                 WELLS =           1.0000

            TOTAL IN =           0.1860              TOTAL IN =           1.0000

          OUT:                                     OUT:
          ----                                     ----
             STORAGE =       1.1136E-13               STORAGE =       6.0521E-13
       CONSTANT HEAD =           0.1860         CONSTANT HEAD =           1.0000
               WELLS =           0.0000                 WELLS =           0.0000

           TOTAL OUT =           0.1860             TOTAL OUT =           1.0000

            IN - OUT =           0.0000              IN - OUT =           0.0000

 PERCENT DISCREPANCY =           0.00     PERCENT DISCREPANCY =           0.00






          TIME SUMMARY AT END OF TIME STEP   1 IN STRESS PERIOD   93
                    SECONDS     MINUTES      HOURS       DAYS        YEARS
                    -----------------------------------------------------------
   TIME STEP LENGTH  172.80      2.8800     4.80000E-02 2.00000E-03 5.47570E-06
 STRESS PERIOD TIME  172.80      2.8800     4.80000E-02 2.00000E-03 5.47570E-06
         TOTAL TIME  16070.      267.84      4.4640     0.18600     5.09240E-04
1
1
                            STRESS PERIOD NO.   94, LENGTH =  0.2000000E-02
                            -----------------------------------------------

                              NUMBER OF TIME STEPS =     1

                               MULTIPLIER FOR DELT =     1.000

                            INITIAL TIME STEP SIZE =  0.2000000E-02

 WELL NO.  LAYER   ROW   COL   STRESS RATE         
 --------------------------------------------------
      1      1      1      1       1.000    

      1 WELL
 
 SOLVING FOR HEAD 

 OUTPUT CONTROL FOR STRESS PERIOD   94   TIME STEP   1
    SAVE HEAD FOR ALL LAYERS
    SAVE BUDGET
 UBDSV1 SAVING "         STORAGE" ON UNIT  31 AT TIME STEP  1, STRESS PERIOD  94
 UBDSV2 SAVING "   CONSTANT HEAD" ON UNIT  31 AT TIME STEP  1, STRESS PERIOD  94
 UBDSV1 SAVING "FLOW RIGHT FACE " ON UNIT  31 AT TIME STEP  1, STRESS PERIOD  94
 UBDSV4 SAVING "           WELLS" ON UNIT  31 AT TIME STEP  1, STRESS PERIOD  94

 SAVING SATURATED THICKNESS AND FLOW TERMS ON UNIT  333 FOR MT3DMS
 BY THE LINK-MT3DMS PACKAGE V6.3 AT TIME STEP    1, STRESS PERIOD   94


 HEAD WILL BE SAVED ON UNIT   30 AT END OF TIME STEP   1, STRESS PERIOD   94
1
  VOLUMETRIC BUDGET FOR ENTIRE MODEL AT END OF TIME STEP  1 IN STRESS PERIOD  94
  ------------------------------------------------------------------------------

     CUMULATIVE VOLUMES      L**3       RATES FOR THIS TIME STEP      L**3/T
     ------------------                 ------------------------

           IN:                                      IN:
           ---                                      ---
             STORAGE =       1.0787E-13               STORAGE =       5.7997E-13
       CONSTANT HEAD =           0.0000         CONSTANT HEAD =           0.0000
               WELLS =           0.1880                 WELLS =           1.0000

            TOTAL IN =           0.1880              TOTAL IN =           1.0000

          OUT:                                     OUT:
          ----                                     ----
             STORAGE =       1.1257E-13               STORAGE =       6.0521E-13
       CONSTANT HEAD =           0.1880         CONSTANT HEAD =           1.0000
               WELLS =           0.0000                 WELLS =           0.0000

           TOTAL OUT =           0.1880             TOTAL OUT =           1.0000

            IN - OUT =           0.0000              IN - OUT =           0.0000

 PERCENT DISCREPANCY =           0.00     PERCENT DISCREPANCY =           0.00






          TIME SUMMARY AT END OF TIME STEP   1 IN STRESS PERIOD   94
                    SECONDS     MINUTES      HOURS       DAYS        YEARS
                    -----------------------------------------------------------
   TIME STEP LENGTH  172.80      2.8800     4.80000E-02 2.00000E-03 5.47570E-06
 STRESS PERIOD TIME  172.80      2.8800     4.80000E-02 2.00000E-03 5.47570E-06
         TOTAL TIME  16243.      270.72      4.5120     0.18800     5.14716E-04
1
1
                            STRESS PERIOD NO.   95, LENGTH =  0.2000000E-02
                            -----------------------------------------------

                              NUMBER OF TIME STEPS =     1

                               MULTIPLIER FOR DELT =     1.000

                            INITIAL TIME STEP SIZE =  0.2000000E-02

 WELL NO.  LAYER   ROW   COL   STRESS RATE         
 --------------------------------------------------
      1      1      1      1       1.000    

      1 WELL
 
 SOLVING FOR HEAD 

 OUTPUT CONTROL FOR STRESS PERIOD   95   TIME STEP   1
    SAVE HEAD FOR ALL LAYERS
    SAVE BUDGET
 UBDSV1 SAVING "         STORAGE" ON UNIT  31 AT TIME STEP  1, STRESS PERIOD  95
 UBDSV2 SAVING "   CONSTANT HEAD" ON UNIT  31 AT TIME STEP  1, STRESS PERIOD  95
 UBDSV1 SAVING "FLOW RIGHT FACE " ON UNIT  31 AT TIME STEP  1, STRESS PERIOD  95
 UBDSV4 SAVING "           WELLS" ON UNIT  31 AT TIME STEP  1, STRESS PERIOD  95

 SAVING SATURATED THICKNESS AND FLOW TERMS ON UNIT  333 FOR MT3DMS
 BY THE LINK-MT3DMS PACKAGE V6.3 AT TIME STEP    1, STRESS PERIOD   95


 HEAD WILL BE SAVED ON UNIT   30 AT END OF TIME STEP   1, STRESS PERIOD   95
1
  VOLUMETRIC BUDGET FOR ENTIRE MODEL AT END OF TIME STEP  1 IN STRESS PERIOD  95
  ------------------------------------------------------------------------------

     CUMULATIVE VOLUMES      L**3       RATES FOR THIS TIME STEP      L**3/T
     ------------------                 ------------------------

           IN:                                      IN:
           ---                                      ---
             STORAGE =       1.0903E-13               STORAGE =       5.7997E-13
       CONSTANT HEAD =           0.0000         CONSTANT HEAD =           0.0000
               WELLS =           0.1900                 WELLS =           1.0000

            TOTAL IN =           0.1900              TOTAL IN =           1.0000

          OUT:                                     OUT:
          ----                                     ----
             STORAGE =       1.1378E-13               STORAGE =       6.0521E-13
       CONSTANT HEAD =           0.1900         CONSTANT HEAD =           1.0000
               WELLS =           0.0000                 WELLS =           0.0000

           TOTAL OUT =           0.1900             TOTAL OUT =           1.0000

            IN - OUT =           0.0000              IN - OUT =           0.0000

 PERCENT DISCREPANCY =           0.00     PERCENT DISCREPANCY =           0.00






          TIME SUMMARY AT END OF TIME STEP   1 IN STRESS PERIOD   95
                    SECONDS     MINUTES      HOURS       DAYS        YEARS
                    -----------------------------------------------------------
   TIME STEP LENGTH  172.80      2.8800     4.80000E-02 2.00000E-03 5.47570E-06
 STRESS PERIOD TIME  172.80      2.8800     4.80000E-02 2.00000E-03 5.47570E-06
         TOTAL TIME  16416.      273.60      4.5600     0.19000     5.20192E-04
1
1
                            STRESS PERIOD NO.   96, LENGTH =  0.2000000E-02
                            -----------------------------------------------

                              NUMBER OF TIME STEPS =     1

                               MULTIPLIER FOR DELT =     1.000

                            INITIAL TIME STEP SIZE =  0.2000000E-02

 WELL NO.  LAYER   ROW   COL   STRESS RATE         
 --------------------------------------------------
      1      1      1      1       1.000    

      1 WELL
 
 SOLVING FOR HEAD 

 OUTPUT CONTROL FOR STRESS PERIOD   96   TIME STEP   1
    SAVE HEAD FOR ALL LAYERS
    SAVE BUDGET
 UBDSV1 SAVING "         STORAGE" ON UNIT  31 AT TIME STEP  1, STRESS PERIOD  96
 UBDSV2 SAVING "   CONSTANT HEAD" ON UNIT  31 AT TIME STEP  1, STRESS PERIOD  96
 UBDSV1 SAVING "FLOW RIGHT FACE " ON UNIT  31 AT TIME STEP  1, STRESS PERIOD  96
 UBDSV4 SAVING "           WELLS" ON UNIT  31 AT TIME STEP  1, STRESS PERIOD  96

 SAVING SATURATED THICKNESS AND FLOW TERMS ON UNIT  333 FOR MT3DMS
 BY THE LINK-MT3DMS PACKAGE V6.3 AT TIME STEP    1, STRESS PERIOD   96


 HEAD WILL BE SAVED ON UNIT   30 AT END OF TIME STEP   1, STRESS PERIOD   96
1
  VOLUMETRIC BUDGET FOR ENTIRE MODEL AT END OF TIME STEP  1 IN STRESS PERIOD  96
  ------------------------------------------------------------------------------

     CUMULATIVE VOLUMES      L**3       RATES FOR THIS TIME STEP      L**3/T
     ------------------                 ------------------------

           IN:                                      IN:
           ---                                      ---
             STORAGE =       1.1019E-13               STORAGE =       5.7997E-13
       CONSTANT HEAD =           0.0000         CONSTANT HEAD =           0.0000
               WELLS =           0.1920                 WELLS =           1.0000

            TOTAL IN =           0.1920              TOTAL IN =           1.0000

          OUT:                                     OUT:
          ----                                     ----
             STORAGE =       1.1499E-13               STORAGE =       6.0521E-13
       CONSTANT HEAD =           0.1920         CONSTANT HEAD =           1.0000
               WELLS =           0.0000                 WELLS =           0.0000

           TOTAL OUT =           0.1920             TOTAL OUT =           1.0000

            IN - OUT =           0.0000              IN - OUT =           0.0000

 PERCENT DISCREPANCY =           0.00     PERCENT DISCREPANCY =           0.00






          TIME SUMMARY AT END OF TIME STEP   1 IN STRESS PERIOD   96
                    SECONDS     MINUTES      HOURS       DAYS        YEARS
                    -----------------------------------------------------------
   TIME STEP LENGTH  172.80      2.8800     4.80000E-02 2.00000E-03 5.47570E-06
 STRESS PERIOD TIME  172.80      2.8800     4.80000E-02 2.00000E-03 5.47570E-06
         TOTAL TIME  16589.      276.48      4.6080     0.19200     5.25667E-04
1
1
                            STRESS PERIOD NO.   97, LENGTH =  0.2000000E-02
                            -----------------------------------------------

                              NUMBER OF TIME STEPS =     1

                               MULTIPLIER FOR DELT =     1.000

                            INITIAL TIME STEP SIZE =  0.2000000E-02

 WELL NO.  LAYER   ROW   COL   STRESS RATE         
 --------------------------------------------------
      1      1      1      1       1.000    

      1 WELL
 
 SOLVING FOR HEAD 

 OUTPUT CONTROL FOR STRESS PERIOD   97   TIME STEP   1
    SAVE HEAD FOR ALL LAYERS
    SAVE BUDGET
 UBDSV1 SAVING "         STORAGE" ON UNIT  31 AT TIME STEP  1, STRESS PERIOD  97
 UBDSV2 SAVING "   CONSTANT HEAD" ON UNIT  31 AT TIME STEP  1, STRESS PERIOD  97
 UBDSV1 SAVING "FLOW RIGHT FACE " ON UNIT  31 AT TIME STEP  1, STRESS PERIOD  97
 UBDSV4 SAVING "           WELLS" ON UNIT  31 AT TIME STEP  1, STRESS PERIOD  97

 SAVING SATURATED THICKNESS AND FLOW TERMS ON UNIT  333 FOR MT3DMS
 BY THE LINK-MT3DMS PACKAGE V6.3 AT TIME STEP    1, STRESS PERIOD   97


 HEAD WILL BE SAVED ON UNIT   30 AT END OF TIME STEP   1, STRESS PERIOD   97
1
  VOLUMETRIC BUDGET FOR ENTIRE MODEL AT END OF TIME STEP  1 IN STRESS PERIOD  97
  ------------------------------------------------------------------------------

     CUMULATIVE VOLUMES      L**3       RATES FOR THIS TIME STEP      L**3/T
     ------------------                 ------------------------

           IN:                                      IN:
           ---                                      ---
             STORAGE =       1.1135E-13               STORAGE =       5.7997E-13
       CONSTANT HEAD =           0.0000         CONSTANT HEAD =           0.0000
               WELLS =           0.1940                 WELLS =           1.0000

            TOTAL IN =           0.1940              TOTAL IN =           1.0000

          OUT:                                     OUT:
          ----                                     ----
             STORAGE =       1.1620E-13               STORAGE =       6.0521E-13
       CONSTANT HEAD =           0.1940         CONSTANT HEAD =           1.0000
               WELLS =           0.0000                 WELLS =           0.0000

           TOTAL OUT =           0.1940             TOTAL OUT =           1.0000

            IN - OUT =           0.0000              IN - OUT =           0.0000

 PERCENT DISCREPANCY =           0.00     PERCENT DISCREPANCY =           0.00






          TIME SUMMARY AT END OF TIME STEP   1 IN STRESS PERIOD   97
                    SECONDS     MINUTES      HOURS       DAYS        YEARS
                    -----------------------------------------------------------
   TIME STEP LENGTH  172.80      2.8800     4.80000E-02 2.00000E-03 5.47570E-06
 STRESS PERIOD TIME  172.80      2.8800     4.80000E-02 2.00000E-03 5.47570E-06
         TOTAL TIME  16762.      279.36      4.6560     0.19400     5.31143E-04
1
1
                            STRESS PERIOD NO.   98, LENGTH =  0.2000000E-02
                            -----------------------------------------------

                              NUMBER OF TIME STEPS =     1

                               MULTIPLIER FOR DELT =     1.000

                            INITIAL TIME STEP SIZE =  0.2000000E-02

 WELL NO.  LAYER   ROW   COL   STRESS RATE         
 --------------------------------------------------
      1      1      1      1       1.000    

      1 WELL
 
 SOLVING FOR HEAD 

 OUTPUT CONTROL FOR STRESS PERIOD   98   TIME STEP   1
    SAVE HEAD FOR ALL LAYERS
    SAVE BUDGET
 UBDSV1 SAVING "         STORAGE" ON UNIT  31 AT TIME STEP  1, STRESS PERIOD  98
 UBDSV2 SAVING "   CONSTANT HEAD" ON UNIT  31 AT TIME STEP  1, STRESS PERIOD  98
 UBDSV1 SAVING "FLOW RIGHT FACE " ON UNIT  31 AT TIME STEP  1, STRESS PERIOD  98
 UBDSV4 SAVING "           WELLS" ON UNIT  31 AT TIME STEP  1, STRESS PERIOD  98

 SAVING SATURATED THICKNESS AND FLOW TERMS ON UNIT  333 FOR MT3DMS
 BY THE LINK-MT3DMS PACKAGE V6.3 AT TIME STEP    1, STRESS PERIOD   98


 HEAD WILL BE SAVED ON UNIT   30 AT END OF TIME STEP   1, STRESS PERIOD   98
1
  VOLUMETRIC BUDGET FOR ENTIRE MODEL AT END OF TIME STEP  1 IN STRESS PERIOD  98
  ------------------------------------------------------------------------------

     CUMULATIVE VOLUMES      L**3       RATES FOR THIS TIME STEP      L**3/T
     ------------------                 ------------------------

           IN:                                      IN:
           ---                                      ---
             STORAGE =       1.1251E-13               STORAGE =       5.7997E-13
       CONSTANT HEAD =           0.0000         CONSTANT HEAD =           0.0000
               WELLS =           0.1960                 WELLS =           1.0000

            TOTAL IN =           0.1960              TOTAL IN =           1.0000

          OUT:                                     OUT:
          ----                                     ----
             STORAGE =       1.1741E-13               STORAGE =       6.0521E-13
       CONSTANT HEAD =           0.1960         CONSTANT HEAD =           1.0000
               WELLS =           0.0000                 WELLS =           0.0000

           TOTAL OUT =           0.1960             TOTAL OUT =           1.0000

            IN - OUT =           0.0000              IN - OUT =           0.0000

 PERCENT DISCREPANCY =           0.00     PERCENT DISCREPANCY =           0.00






          TIME SUMMARY AT END OF TIME STEP   1 IN STRESS PERIOD   98
                    SECONDS     MINUTES      HOURS       DAYS        YEARS
                    -----------------------------------------------------------
   TIME STEP LENGTH  172.80      2.8800     4.80000E-02 2.00000E-03 5.47570E-06
 STRESS PERIOD TIME  172.80      2.8800     4.80000E-02 2.00000E-03 5.47570E-06
         TOTAL TIME  16934.      282.24      4.7040     0.19600     5.36619E-04
1
1
                            STRESS PERIOD NO.   99, LENGTH =  0.2000000E-02
                            -----------------------------------------------

                              NUMBER OF TIME STEPS =     1

                               MULTIPLIER FOR DELT =     1.000

                            INITIAL TIME STEP SIZE =  0.2000000E-02

 WELL NO.  LAYER   ROW   COL   STRESS RATE         
 --------------------------------------------------
      1      1      1      1       1.000    

      1 WELL
 
 SOLVING FOR HEAD 

 OUTPUT CONTROL FOR STRESS PERIOD   99   TIME STEP   1
    SAVE HEAD FOR ALL LAYERS
    SAVE BUDGET
 UBDSV1 SAVING "         STORAGE" ON UNIT  31 AT TIME STEP  1, STRESS PERIOD  99
 UBDSV2 SAVING "   CONSTANT HEAD" ON UNIT  31 AT TIME STEP  1, STRESS PERIOD  99
 UBDSV1 SAVING "FLOW RIGHT FACE " ON UNIT  31 AT TIME STEP  1, STRESS PERIOD  99
 UBDSV4 SAVING "           WELLS" ON UNIT  31 AT TIME STEP  1, STRESS PERIOD  99

 SAVING SATURATED THICKNESS AND FLOW TERMS ON UNIT  333 FOR MT3DMS
 BY THE LINK-MT3DMS PACKAGE V6.3 AT TIME STEP    1, STRESS PERIOD   99


 HEAD WILL BE SAVED ON UNIT   30 AT END OF TIME STEP   1, STRESS PERIOD   99
1
  VOLUMETRIC BUDGET FOR ENTIRE MODEL AT END OF TIME STEP  1 IN STRESS PERIOD  99
  ------------------------------------------------------------------------------

     CUMULATIVE VOLUMES      L**3       RATES FOR THIS TIME STEP      L**3/T
     ------------------                 ------------------------

           IN:                                      IN:
           ---                                      ---
             STORAGE =       1.1367E-13               STORAGE =       5.7997E-13
       CONSTANT HEAD =           0.0000         CONSTANT HEAD =           0.0000
               WELLS =           0.1980                 WELLS =           1.0000

            TOTAL IN =           0.1980              TOTAL IN =           1.0000

          OUT:                                     OUT:
          ----                                     ----
             STORAGE =       1.1862E-13               STORAGE =       6.0521E-13
       CONSTANT HEAD =           0.1980         CONSTANT HEAD =           1.0000
               WELLS =           0.0000                 WELLS =           0.0000

           TOTAL OUT =           0.1980             TOTAL OUT =           1.0000

            IN - OUT =           0.0000              IN - OUT =           0.0000

 PERCENT DISCREPANCY =           0.00     PERCENT DISCREPANCY =           0.00






          TIME SUMMARY AT END OF TIME STEP   1 IN STRESS PERIOD   99
                    SECONDS     MINUTES      HOURS       DAYS        YEARS
                    -----------------------------------------------------------
   TIME STEP LENGTH  172.80      2.8800     4.80000E-02 2.00000E-03 5.47570E-06
 STRESS PERIOD TIME  172.80      2.8800     4.80000E-02 2.00000E-03 5.47570E-06
         TOTAL TIME  17107.      285.12      4.7520     0.19800     5.42095E-04
1
1
                            STRESS PERIOD NO.  100, LENGTH =  0.2000000E-02
                            -----------------------------------------------

                              NUMBER OF TIME STEPS =     1

                               MULTIPLIER FOR DELT =     1.000

                            INITIAL TIME STEP SIZE =  0.2000000E-02

 WELL NO.  LAYER   ROW   COL   STRESS RATE         
 --------------------------------------------------
      1      1      1      1       1.000    

      1 WELL
 
 SOLVING FOR HEAD 

 OUTPUT CONTROL FOR STRESS PERIOD  100   TIME STEP   1
    SAVE HEAD FOR ALL LAYERS
    SAVE BUDGET
 UBDSV1 SAVING "         STORAGE" ON UNIT  31 AT TIME STEP  1, STRESS PERIOD 100
 UBDSV2 SAVING "   CONSTANT HEAD" ON UNIT  31 AT TIME STEP  1, STRESS PERIOD 100
 UBDSV1 SAVING "FLOW RIGHT FACE " ON UNIT  31 AT TIME STEP  1, STRESS PERIOD 100
 UBDSV4 SAVING "           WELLS" ON UNIT  31 AT TIME STEP  1, STRESS PERIOD 100

 SAVING SATURATED THICKNESS AND FLOW TERMS ON UNIT  333 FOR MT3DMS
 BY THE LINK-MT3DMS PACKAGE V6.3 AT TIME STEP    1, STRESS PERIOD  100


 HEAD WILL BE SAVED ON UNIT   30 AT END OF TIME STEP   1, STRESS PERIOD  100
1
  VOLUMETRIC BUDGET FOR ENTIRE MODEL AT END OF TIME STEP  1 IN STRESS PERIOD 100
  ------------------------------------------------------------------------------

     CUMULATIVE VOLUMES      L**3       RATES FOR THIS TIME STEP      L**3/T
     ------------------                 ------------------------

           IN:                                      IN:
           ---                                      ---
             STORAGE =       1.1483E-13               STORAGE =       5.7997E-13
       CONSTANT HEAD =           0.0000         CONSTANT HEAD =           0.0000
               WELLS =           0.2000                 WELLS =           1.0000

            TOTAL IN =           0.2000              TOTAL IN =           1.0000

          OUT:                                     OUT:
          ----                                     ----
             STORAGE =       1.1983E-13               STORAGE =       6.0521E-13
       CONSTANT HEAD =           0.2000         CONSTANT HEAD =           1.0000
               WELLS =           0.0000                 WELLS =           0.0000

           TOTAL OUT =           0.2000             TOTAL OUT =           1.0000

            IN - OUT =           0.0000              IN - OUT =           0.0000

 PERCENT DISCREPANCY =           0.00     PERCENT DISCREPANCY =           0.00






          TIME SUMMARY AT END OF TIME STEP   1 IN STRESS PERIOD  100
                    SECONDS     MINUTES      HOURS       DAYS        YEARS
                    -----------------------------------------------------------
   TIME STEP LENGTH  172.80      2.8800     4.80000E-02 2.00000E-03 5.47570E-06
 STRESS PERIOD TIME  172.80      2.8800     4.80000E-02 2.00000E-03 5.47570E-06
         TOTAL TIME  17280.      288.00      4.8000     0.20000     5.47570E-04
1
1
                            STRESS PERIOD NO.  101, LENGTH =  0.2000000E-02
                            -----------------------------------------------

                              NUMBER OF TIME STEPS =     1

                               MULTIPLIER FOR DELT =     1.000

                            INITIAL TIME STEP SIZE =  0.2000000E-02

 WELL NO.  LAYER   ROW   COL   STRESS RATE         
 --------------------------------------------------
      1      1      1      1       1.000    

      1 WELL
 
 SOLVING FOR HEAD 

 OUTPUT CONTROL FOR STRESS PERIOD  101   TIME STEP   1
    SAVE HEAD FOR ALL LAYERS
    SAVE BUDGET
 UBDSV1 SAVING "         STORAGE" ON UNIT  31 AT TIME STEP  1, STRESS PERIOD 101
 UBDSV2 SAVING "   CONSTANT HEAD" ON UNIT  31 AT TIME STEP  1, STRESS PERIOD 101
 UBDSV1 SAVING "FLOW RIGHT FACE " ON UNIT  31 AT TIME STEP  1, STRESS PERIOD 101
 UBDSV4 SAVING "           WELLS" ON UNIT  31 AT TIME STEP  1, STRESS PERIOD 101

 SAVING SATURATED THICKNESS AND FLOW TERMS ON UNIT  333 FOR MT3DMS
 BY THE LINK-MT3DMS PACKAGE V6.3 AT TIME STEP    1, STRESS PERIOD  101


 HEAD WILL BE SAVED ON UNIT   30 AT END OF TIME STEP   1, STRESS PERIOD  101
1
  VOLUMETRIC BUDGET FOR ENTIRE MODEL AT END OF TIME STEP  1 IN STRESS PERIOD 101
  ------------------------------------------------------------------------------

     CUMULATIVE VOLUMES      L**3       RATES FOR THIS TIME STEP      L**3/T
     ------------------                 ------------------------

           IN:                                      IN:
           ---                                      ---
             STORAGE =       1.1599E-13               STORAGE =       5.7997E-13
       CONSTANT HEAD =           0.0000         CONSTANT HEAD =           0.0000
               WELLS =           0.2020                 WELLS =           1.0000

            TOTAL IN =           0.2020              TOTAL IN =           1.0000

          OUT:                                     OUT:
          ----                                     ----
             STORAGE =       1.2104E-13               STORAGE =       6.0521E-13
       CONSTANT HEAD =           0.2020         CONSTANT HEAD =           1.0000
               WELLS =           0.0000                 WELLS =           0.0000

           TOTAL OUT =           0.2020             TOTAL OUT =           1.0000

            IN - OUT =           0.0000              IN - OUT =           0.0000

 PERCENT DISCREPANCY =           0.00     PERCENT DISCREPANCY =           0.00






          TIME SUMMARY AT END OF TIME STEP   1 IN STRESS PERIOD  101
                    SECONDS     MINUTES      HOURS       DAYS        YEARS
                    -----------------------------------------------------------
   TIME STEP LENGTH  172.80      2.8800     4.80000E-02 2.00000E-03 5.47570E-06
 STRESS PERIOD TIME  172.80      2.8800     4.80000E-02 2.00000E-03 5.47570E-06
         TOTAL TIME  17453.      290.88      4.8480     0.20200     5.53046E-04
1
1
                            STRESS PERIOD NO.  102, LENGTH =  0.2000000E-02
                            -----------------------------------------------

                              NUMBER OF TIME STEPS =     1

                               MULTIPLIER FOR DELT =     1.000

                            INITIAL TIME STEP SIZE =  0.2000000E-02

 WELL NO.  LAYER   ROW   COL   STRESS RATE         
 --------------------------------------------------
      1      1      1      1       1.000    

      1 WELL
 
 SOLVING FOR HEAD 

 OUTPUT CONTROL FOR STRESS PERIOD  102   TIME STEP   1
    SAVE HEAD FOR ALL LAYERS
    SAVE BUDGET
 UBDSV1 SAVING "         STORAGE" ON UNIT  31 AT TIME STEP  1, STRESS PERIOD 102
 UBDSV2 SAVING "   CONSTANT HEAD" ON UNIT  31 AT TIME STEP  1, STRESS PERIOD 102
 UBDSV1 SAVING "FLOW RIGHT FACE " ON UNIT  31 AT TIME STEP  1, STRESS PERIOD 102
 UBDSV4 SAVING "           WELLS" ON UNIT  31 AT TIME STEP  1, STRESS PERIOD 102

 SAVING SATURATED THICKNESS AND FLOW TERMS ON UNIT  333 FOR MT3DMS
 BY THE LINK-MT3DMS PACKAGE V6.3 AT TIME STEP    1, STRESS PERIOD  102


 HEAD WILL BE SAVED ON UNIT   30 AT END OF TIME STEP   1, STRESS PERIOD  102
1
  VOLUMETRIC BUDGET FOR ENTIRE MODEL AT END OF TIME STEP  1 IN STRESS PERIOD 102
  ------------------------------------------------------------------------------

     CUMULATIVE VOLUMES      L**3       RATES FOR THIS TIME STEP      L**3/T
     ------------------                 ------------------------

           IN:                                      IN:
           ---                                      ---
             STORAGE =       1.1715E-13               STORAGE =       5.7997E-13
       CONSTANT HEAD =           0.0000         CONSTANT HEAD =           0.0000
               WELLS =           0.2040                 WELLS =           1.0000

            TOTAL IN =           0.2040              TOTAL IN =           1.0000

          OUT:                                     OUT:
          ----                                     ----
             STORAGE =       1.2225E-13               STORAGE =       6.0521E-13
       CONSTANT HEAD =           0.2040         CONSTANT HEAD =           1.0000
               WELLS =           0.0000                 WELLS =           0.0000

           TOTAL OUT =           0.2040             TOTAL OUT =           1.0000

            IN - OUT =           0.0000              IN - OUT =           0.0000

 PERCENT DISCREPANCY =           0.00     PERCENT DISCREPANCY =           0.00






          TIME SUMMARY AT END OF TIME STEP   1 IN STRESS PERIOD  102
                    SECONDS     MINUTES      HOURS       DAYS        YEARS
                    -----------------------------------------------------------
   TIME STEP LENGTH  172.80      2.8800     4.80000E-02 2.00000E-03 5.47570E-06
 STRESS PERIOD TIME  172.80      2.8800     4.80000E-02 2.00000E-03 5.47570E-06
         TOTAL TIME  17626.      293.76      4.8960     0.20400     5.58522E-04
1
1
                            STRESS PERIOD NO.  103, LENGTH =  0.2000000E-02
                            -----------------------------------------------

                              NUMBER OF TIME STEPS =     1

                               MULTIPLIER FOR DELT =     1.000

                            INITIAL TIME STEP SIZE =  0.2000000E-02

 WELL NO.  LAYER   ROW   COL   STRESS RATE         
 --------------------------------------------------
      1      1      1      1       1.000    

      1 WELL
 
 SOLVING FOR HEAD 

 OUTPUT CONTROL FOR STRESS PERIOD  103   TIME STEP   1
    SAVE HEAD FOR ALL LAYERS
    SAVE BUDGET
 UBDSV1 SAVING "         STORAGE" ON UNIT  31 AT TIME STEP  1, STRESS PERIOD 103
 UBDSV2 SAVING "   CONSTANT HEAD" ON UNIT  31 AT TIME STEP  1, STRESS PERIOD 103
 UBDSV1 SAVING "FLOW RIGHT FACE " ON UNIT  31 AT TIME STEP  1, STRESS PERIOD 103
 UBDSV4 SAVING "           WELLS" ON UNIT  31 AT TIME STEP  1, STRESS PERIOD 103

 SAVING SATURATED THICKNESS AND FLOW TERMS ON UNIT  333 FOR MT3DMS
 BY THE LINK-MT3DMS PACKAGE V6.3 AT TIME STEP    1, STRESS PERIOD  103


 HEAD WILL BE SAVED ON UNIT   30 AT END OF TIME STEP   1, STRESS PERIOD  103
1
  VOLUMETRIC BUDGET FOR ENTIRE MODEL AT END OF TIME STEP  1 IN STRESS PERIOD 103
  ------------------------------------------------------------------------------

     CUMULATIVE VOLUMES      L**3       RATES FOR THIS TIME STEP      L**3/T
     ------------------                 ------------------------

           IN:                                      IN:
           ---                                      ---
             STORAGE =       1.1831E-13               STORAGE =       5.7997E-13
       CONSTANT HEAD =           0.0000         CONSTANT HEAD =           0.0000
               WELLS =           0.2060                 WELLS =           1.0000

            TOTAL IN =           0.2060              TOTAL IN =           1.0000

          OUT:                                     OUT:
          ----                                     ----
             STORAGE =       1.2346E-13               STORAGE =       6.0521E-13
       CONSTANT HEAD =           0.2060         CONSTANT HEAD =           1.0000
               WELLS =           0.0000                 WELLS =           0.0000

           TOTAL OUT =           0.2060             TOTAL OUT =           1.0000

            IN - OUT =           0.0000              IN - OUT =           0.0000

 PERCENT DISCREPANCY =           0.00     PERCENT DISCREPANCY =           0.00






          TIME SUMMARY AT END OF TIME STEP   1 IN STRESS PERIOD  103
                    SECONDS     MINUTES      HOURS       DAYS        YEARS
                    -----------------------------------------------------------
   TIME STEP LENGTH  172.80      2.8800     4.80000E-02 2.00000E-03 5.47570E-06
 STRESS PERIOD TIME  172.80      2.8800     4.80000E-02 2.00000E-03 5.47570E-06
         TOTAL TIME  17798.      296.64      4.9440     0.20600     5.63997E-04
1
1
                            STRESS PERIOD NO.  104, LENGTH =  0.2000000E-02
                            -----------------------------------------------

                              NUMBER OF TIME STEPS =     1

                               MULTIPLIER FOR DELT =     1.000

                            INITIAL TIME STEP SIZE =  0.2000000E-02

 WELL NO.  LAYER   ROW   COL   STRESS RATE         
 --------------------------------------------------
      1      1      1      1       1.000    

      1 WELL
 
 SOLVING FOR HEAD 

 OUTPUT CONTROL FOR STRESS PERIOD  104   TIME STEP   1
    SAVE HEAD FOR ALL LAYERS
    SAVE BUDGET
 UBDSV1 SAVING "         STORAGE" ON UNIT  31 AT TIME STEP  1, STRESS PERIOD 104
 UBDSV2 SAVING "   CONSTANT HEAD" ON UNIT  31 AT TIME STEP  1, STRESS PERIOD 104
 UBDSV1 SAVING "FLOW RIGHT FACE " ON UNIT  31 AT TIME STEP  1, STRESS PERIOD 104
 UBDSV4 SAVING "           WELLS" ON UNIT  31 AT TIME STEP  1, STRESS PERIOD 104

 SAVING SATURATED THICKNESS AND FLOW TERMS ON UNIT  333 FOR MT3DMS
 BY THE LINK-MT3DMS PACKAGE V6.3 AT TIME STEP    1, STRESS PERIOD  104


 HEAD WILL BE SAVED ON UNIT   30 AT END OF TIME STEP   1, STRESS PERIOD  104
1
  VOLUMETRIC BUDGET FOR ENTIRE MODEL AT END OF TIME STEP  1 IN STRESS PERIOD 104
  ------------------------------------------------------------------------------

     CUMULATIVE VOLUMES      L**3       RATES FOR THIS TIME STEP      L**3/T
     ------------------                 ------------------------

           IN:                                      IN:
           ---                                      ---
             STORAGE =       1.1947E-13               STORAGE =       5.7997E-13
       CONSTANT HEAD =           0.0000         CONSTANT HEAD =           0.0000
               WELLS =           0.2080                 WELLS =           1.0000

            TOTAL IN =           0.2080              TOTAL IN =           1.0000

          OUT:                                     OUT:
          ----                                     ----
             STORAGE =       1.2467E-13               STORAGE =       6.0521E-13
       CONSTANT HEAD =           0.2080         CONSTANT HEAD =           1.0000
               WELLS =           0.0000                 WELLS =           0.0000

           TOTAL OUT =           0.2080             TOTAL OUT =           1.0000

            IN - OUT =           0.0000              IN - OUT =           0.0000

 PERCENT DISCREPANCY =           0.00     PERCENT DISCREPANCY =           0.00






          TIME SUMMARY AT END OF TIME STEP   1 IN STRESS PERIOD  104
                    SECONDS     MINUTES      HOURS       DAYS        YEARS
                    -----------------------------------------------------------
   TIME STEP LENGTH  172.80      2.8800     4.80000E-02 2.00000E-03 5.47570E-06
 STRESS PERIOD TIME  172.80      2.8800     4.80000E-02 2.00000E-03 5.47570E-06
         TOTAL TIME  17971.      299.52      4.9920     0.20800     5.69473E-04
1
1
                            STRESS PERIOD NO.  105, LENGTH =  0.2000000E-02
                            -----------------------------------------------

                              NUMBER OF TIME STEPS =     1

                               MULTIPLIER FOR DELT =     1.000

                            INITIAL TIME STEP SIZE =  0.2000000E-02

 WELL NO.  LAYER   ROW   COL   STRESS RATE         
 --------------------------------------------------
      1      1      1      1       1.000    

      1 WELL
 
 SOLVING FOR HEAD 

 OUTPUT CONTROL FOR STRESS PERIOD  105   TIME STEP   1
    SAVE HEAD FOR ALL LAYERS
    SAVE BUDGET
 UBDSV1 SAVING "         STORAGE" ON UNIT  31 AT TIME STEP  1, STRESS PERIOD 105
 UBDSV2 SAVING "   CONSTANT HEAD" ON UNIT  31 AT TIME STEP  1, STRESS PERIOD 105
 UBDSV1 SAVING "FLOW RIGHT FACE " ON UNIT  31 AT TIME STEP  1, STRESS PERIOD 105
 UBDSV4 SAVING "           WELLS" ON UNIT  31 AT TIME STEP  1, STRESS PERIOD 105

 SAVING SATURATED THICKNESS AND FLOW TERMS ON UNIT  333 FOR MT3DMS
 BY THE LINK-MT3DMS PACKAGE V6.3 AT TIME STEP    1, STRESS PERIOD  105


 HEAD WILL BE SAVED ON UNIT   30 AT END OF TIME STEP   1, STRESS PERIOD  105
1
  VOLUMETRIC BUDGET FOR ENTIRE MODEL AT END OF TIME STEP  1 IN STRESS PERIOD 105
  ------------------------------------------------------------------------------

     CUMULATIVE VOLUMES      L**3       RATES FOR THIS TIME STEP      L**3/T
     ------------------                 ------------------------

           IN:                                      IN:
           ---                                      ---
             STORAGE =       1.2063E-13               STORAGE =       5.7997E-13
       CONSTANT HEAD =           0.0000         CONSTANT HEAD =           0.0000
               WELLS =           0.2100                 WELLS =           1.0000

            TOTAL IN =           0.2100              TOTAL IN =           1.0000

          OUT:                                     OUT:
          ----                                     ----
             STORAGE =       1.2588E-13               STORAGE =       6.0521E-13
       CONSTANT HEAD =           0.2100         CONSTANT HEAD =           1.0000
               WELLS =           0.0000                 WELLS =           0.0000

           TOTAL OUT =           0.2100             TOTAL OUT =           1.0000

            IN - OUT =           0.0000              IN - OUT =           0.0000

 PERCENT DISCREPANCY =           0.00     PERCENT DISCREPANCY =           0.00






          TIME SUMMARY AT END OF TIME STEP   1 IN STRESS PERIOD  105
                    SECONDS     MINUTES      HOURS       DAYS        YEARS
                    -----------------------------------------------------------
   TIME STEP LENGTH  172.80      2.8800     4.80000E-02 2.00000E-03 5.47570E-06
 STRESS PERIOD TIME  172.80      2.8800     4.80000E-02 2.00000E-03 5.47570E-06
         TOTAL TIME  18144.      302.40      5.0400     0.21000     5.74949E-04
1
1
                            STRESS PERIOD NO.  106, LENGTH =  0.2000000E-02
                            -----------------------------------------------

                              NUMBER OF TIME STEPS =     1

                               MULTIPLIER FOR DELT =     1.000

                            INITIAL TIME STEP SIZE =  0.2000000E-02

 WELL NO.  LAYER   ROW   COL   STRESS RATE         
 --------------------------------------------------
      1      1      1      1       1.000    

      1 WELL
 
 SOLVING FOR HEAD 

 OUTPUT CONTROL FOR STRESS PERIOD  106   TIME STEP   1
    SAVE HEAD FOR ALL LAYERS
    SAVE BUDGET
 UBDSV1 SAVING "         STORAGE" ON UNIT  31 AT TIME STEP  1, STRESS PERIOD 106
 UBDSV2 SAVING "   CONSTANT HEAD" ON UNIT  31 AT TIME STEP  1, STRESS PERIOD 106
 UBDSV1 SAVING "FLOW RIGHT FACE " ON UNIT  31 AT TIME STEP  1, STRESS PERIOD 106
 UBDSV4 SAVING "           WELLS" ON UNIT  31 AT TIME STEP  1, STRESS PERIOD 106

 SAVING SATURATED THICKNESS AND FLOW TERMS ON UNIT  333 FOR MT3DMS
 BY THE LINK-MT3DMS PACKAGE V6.3 AT TIME STEP    1, STRESS PERIOD  106


 HEAD WILL BE SAVED ON UNIT   30 AT END OF TIME STEP   1, STRESS PERIOD  106
1
  VOLUMETRIC BUDGET FOR ENTIRE MODEL AT END OF TIME STEP  1 IN STRESS PERIOD 106
  ------------------------------------------------------------------------------

     CUMULATIVE VOLUMES      L**3       RATES FOR THIS TIME STEP      L**3/T
     ------------------                 ------------------------

           IN:                                      IN:
           ---                                      ---
             STORAGE =       1.2179E-13               STORAGE =       5.7997E-13
       CONSTANT HEAD =           0.0000         CONSTANT HEAD =           0.0000
               WELLS =           0.2120                 WELLS =           1.0000

            TOTAL IN =           0.2120              TOTAL IN =           1.0000

          OUT:                                     OUT:
          ----                                     ----
             STORAGE =       1.2710E-13               STORAGE =       6.0521E-13
       CONSTANT HEAD =           0.2120         CONSTANT HEAD =           1.0000
               WELLS =           0.0000                 WELLS =           0.0000

           TOTAL OUT =           0.2120             TOTAL OUT =           1.0000

            IN - OUT =           0.0000              IN - OUT =           0.0000

 PERCENT DISCREPANCY =           0.00     PERCENT DISCREPANCY =           0.00






          TIME SUMMARY AT END OF TIME STEP   1 IN STRESS PERIOD  106
                    SECONDS     MINUTES      HOURS       DAYS        YEARS
                    -----------------------------------------------------------
   TIME STEP LENGTH  172.80      2.8800     4.80000E-02 2.00000E-03 5.47570E-06
 STRESS PERIOD TIME  172.80      2.8800     4.80000E-02 2.00000E-03 5.47570E-06
         TOTAL TIME  18317.      305.28      5.0880     0.21200     5.80425E-04
1
1
                            STRESS PERIOD NO.  107, LENGTH =  0.2000000E-02
                            -----------------------------------------------

                              NUMBER OF TIME STEPS =     1

                               MULTIPLIER FOR DELT =     1.000

                            INITIAL TIME STEP SIZE =  0.2000000E-02

 WELL NO.  LAYER   ROW   COL   STRESS RATE         
 --------------------------------------------------
      1      1      1      1       1.000    

      1 WELL
 
 SOLVING FOR HEAD 

 OUTPUT CONTROL FOR STRESS PERIOD  107   TIME STEP   1
    SAVE HEAD FOR ALL LAYERS
    SAVE BUDGET
 UBDSV1 SAVING "         STORAGE" ON UNIT  31 AT TIME STEP  1, STRESS PERIOD 107
 UBDSV2 SAVING "   CONSTANT HEAD" ON UNIT  31 AT TIME STEP  1, STRESS PERIOD 107
 UBDSV1 SAVING "FLOW RIGHT FACE " ON UNIT  31 AT TIME STEP  1, STRESS PERIOD 107
 UBDSV4 SAVING "           WELLS" ON UNIT  31 AT TIME STEP  1, STRESS PERIOD 107

 SAVING SATURATED THICKNESS AND FLOW TERMS ON UNIT  333 FOR MT3DMS
 BY THE LINK-MT3DMS PACKAGE V6.3 AT TIME STEP    1, STRESS PERIOD  107


 HEAD WILL BE SAVED ON UNIT   30 AT END OF TIME STEP   1, STRESS PERIOD  107
1
  VOLUMETRIC BUDGET FOR ENTIRE MODEL AT END OF TIME STEP  1 IN STRESS PERIOD 107
  ------------------------------------------------------------------------------

     CUMULATIVE VOLUMES      L**3       RATES FOR THIS TIME STEP      L**3/T
     ------------------                 ------------------------

           IN:                                      IN:
           ---                                      ---
             STORAGE =       1.2295E-13               STORAGE =       5.7997E-13
       CONSTANT HEAD =           0.0000         CONSTANT HEAD =           0.0000
               WELLS =           0.2140                 WELLS =           1.0000

            TOTAL IN =           0.2140              TOTAL IN =           1.0000

          OUT:                                     OUT:
          ----                                     ----
             STORAGE =       1.2831E-13               STORAGE =       6.0521E-13
       CONSTANT HEAD =           0.2140         CONSTANT HEAD =           1.0000
               WELLS =           0.0000                 WELLS =           0.0000

           TOTAL OUT =           0.2140             TOTAL OUT =           1.0000

            IN - OUT =           0.0000              IN - OUT =           0.0000

 PERCENT DISCREPANCY =           0.00     PERCENT DISCREPANCY =           0.00






          TIME SUMMARY AT END OF TIME STEP   1 IN STRESS PERIOD  107
                    SECONDS     MINUTES      HOURS       DAYS        YEARS
                    -----------------------------------------------------------
   TIME STEP LENGTH  172.80      2.8800     4.80000E-02 2.00000E-03 5.47570E-06
 STRESS PERIOD TIME  172.80      2.8800     4.80000E-02 2.00000E-03 5.47570E-06
         TOTAL TIME  18490.      308.16      5.1360     0.21400     5.85900E-04
1
1
                            STRESS PERIOD NO.  108, LENGTH =  0.2000000E-02
                            -----------------------------------------------

                              NUMBER OF TIME STEPS =     1

                               MULTIPLIER FOR DELT =     1.000

                            INITIAL TIME STEP SIZE =  0.2000000E-02

 WELL NO.  LAYER   ROW   COL   STRESS RATE         
 --------------------------------------------------
      1      1      1      1       1.000    

      1 WELL
 
 SOLVING FOR HEAD 

 OUTPUT CONTROL FOR STRESS PERIOD  108   TIME STEP   1
    SAVE HEAD FOR ALL LAYERS
    SAVE BUDGET
 UBDSV1 SAVING "         STORAGE" ON UNIT  31 AT TIME STEP  1, STRESS PERIOD 108
 UBDSV2 SAVING "   CONSTANT HEAD" ON UNIT  31 AT TIME STEP  1, STRESS PERIOD 108
 UBDSV1 SAVING "FLOW RIGHT FACE " ON UNIT  31 AT TIME STEP  1, STRESS PERIOD 108
 UBDSV4 SAVING "           WELLS" ON UNIT  31 AT TIME STEP  1, STRESS PERIOD 108

 SAVING SATURATED THICKNESS AND FLOW TERMS ON UNIT  333 FOR MT3DMS
 BY THE LINK-MT3DMS PACKAGE V6.3 AT TIME STEP    1, STRESS PERIOD  108


 HEAD WILL BE SAVED ON UNIT   30 AT END OF TIME STEP   1, STRESS PERIOD  108
1
  VOLUMETRIC BUDGET FOR ENTIRE MODEL AT END OF TIME STEP  1 IN STRESS PERIOD 108
  ------------------------------------------------------------------------------

     CUMULATIVE VOLUMES      L**3       RATES FOR THIS TIME STEP      L**3/T
     ------------------                 ------------------------

           IN:                                      IN:
           ---                                      ---
             STORAGE =       1.2411E-13               STORAGE =       5.7997E-13
       CONSTANT HEAD =           0.0000         CONSTANT HEAD =           0.0000
               WELLS =           0.2160                 WELLS =           1.0000

            TOTAL IN =           0.2160              TOTAL IN =           1.0000

          OUT:                                     OUT:
          ----                                     ----
             STORAGE =       1.2952E-13               STORAGE =       6.0521E-13
       CONSTANT HEAD =           0.2160         CONSTANT HEAD =           1.0000
               WELLS =           0.0000                 WELLS =           0.0000

           TOTAL OUT =           0.2160             TOTAL OUT =           1.0000

            IN - OUT =           0.0000              IN - OUT =           0.0000

 PERCENT DISCREPANCY =           0.00     PERCENT DISCREPANCY =           0.00






          TIME SUMMARY AT END OF TIME STEP   1 IN STRESS PERIOD  108
                    SECONDS     MINUTES      HOURS       DAYS        YEARS
                    -----------------------------------------------------------
   TIME STEP LENGTH  172.80      2.8800     4.80000E-02 2.00000E-03 5.47570E-06
 STRESS PERIOD TIME  172.80      2.8800     4.80000E-02 2.00000E-03 5.47570E-06
         TOTAL TIME  18662.      311.04      5.1840     0.21600     5.91376E-04
1
1
                            STRESS PERIOD NO.  109, LENGTH =  0.2000000E-02
                            -----------------------------------------------

                              NUMBER OF TIME STEPS =     1

                               MULTIPLIER FOR DELT =     1.000

                            INITIAL TIME STEP SIZE =  0.2000000E-02

 WELL NO.  LAYER   ROW   COL   STRESS RATE         
 --------------------------------------------------
      1      1      1      1       1.000    

      1 WELL
 
 SOLVING FOR HEAD 

 OUTPUT CONTROL FOR STRESS PERIOD  109   TIME STEP   1
    SAVE HEAD FOR ALL LAYERS
    SAVE BUDGET
 UBDSV1 SAVING "         STORAGE" ON UNIT  31 AT TIME STEP  1, STRESS PERIOD 109
 UBDSV2 SAVING "   CONSTANT HEAD" ON UNIT  31 AT TIME STEP  1, STRESS PERIOD 109
 UBDSV1 SAVING "FLOW RIGHT FACE " ON UNIT  31 AT TIME STEP  1, STRESS PERIOD 109
 UBDSV4 SAVING "           WELLS" ON UNIT  31 AT TIME STEP  1, STRESS PERIOD 109

 SAVING SATURATED THICKNESS AND FLOW TERMS ON UNIT  333 FOR MT3DMS
 BY THE LINK-MT3DMS PACKAGE V6.3 AT TIME STEP    1, STRESS PERIOD  109


 HEAD WILL BE SAVED ON UNIT   30 AT END OF TIME STEP   1, STRESS PERIOD  109
1
  VOLUMETRIC BUDGET FOR ENTIRE MODEL AT END OF TIME STEP  1 IN STRESS PERIOD 109
  ------------------------------------------------------------------------------

     CUMULATIVE VOLUMES      L**3       RATES FOR THIS TIME STEP      L**3/T
     ------------------                 ------------------------

           IN:                                      IN:
           ---                                      ---
             STORAGE =       1.2527E-13               STORAGE =       5.7997E-13
       CONSTANT HEAD =           0.0000         CONSTANT HEAD =           0.0000
               WELLS =           0.2180                 WELLS =           1.0000

            TOTAL IN =           0.2180              TOTAL IN =           1.0000

          OUT:                                     OUT:
          ----                                     ----
             STORAGE =       1.3073E-13               STORAGE =       6.0521E-13
       CONSTANT HEAD =           0.2180         CONSTANT HEAD =           1.0000
               WELLS =           0.0000                 WELLS =           0.0000

           TOTAL OUT =           0.2180             TOTAL OUT =           1.0000

            IN - OUT =           0.0000              IN - OUT =           0.0000

 PERCENT DISCREPANCY =           0.00     PERCENT DISCREPANCY =           0.00






          TIME SUMMARY AT END OF TIME STEP   1 IN STRESS PERIOD  109
                    SECONDS     MINUTES      HOURS       DAYS        YEARS
                    -----------------------------------------------------------
   TIME STEP LENGTH  172.80      2.8800     4.80000E-02 2.00000E-03 5.47570E-06
 STRESS PERIOD TIME  172.80      2.8800     4.80000E-02 2.00000E-03 5.47570E-06
         TOTAL TIME  18835.      313.92      5.2320     0.21800     5.96852E-04
1
1
                            STRESS PERIOD NO.  110, LENGTH =  0.2000000E-02
                            -----------------------------------------------

                              NUMBER OF TIME STEPS =     1

                               MULTIPLIER FOR DELT =     1.000

                            INITIAL TIME STEP SIZE =  0.2000000E-02

 WELL NO.  LAYER   ROW   COL   STRESS RATE         
 --------------------------------------------------
      1      1      1      1       1.000    

      1 WELL
 
 SOLVING FOR HEAD 

 OUTPUT CONTROL FOR STRESS PERIOD  110   TIME STEP   1
    SAVE HEAD FOR ALL LAYERS
    SAVE BUDGET
 UBDSV1 SAVING "         STORAGE" ON UNIT  31 AT TIME STEP  1, STRESS PERIOD 110
 UBDSV2 SAVING "   CONSTANT HEAD" ON UNIT  31 AT TIME STEP  1, STRESS PERIOD 110
 UBDSV1 SAVING "FLOW RIGHT FACE " ON UNIT  31 AT TIME STEP  1, STRESS PERIOD 110
 UBDSV4 SAVING "           WELLS" ON UNIT  31 AT TIME STEP  1, STRESS PERIOD 110

 SAVING SATURATED THICKNESS AND FLOW TERMS ON UNIT  333 FOR MT3DMS
 BY THE LINK-MT3DMS PACKAGE V6.3 AT TIME STEP    1, STRESS PERIOD  110


 HEAD WILL BE SAVED ON UNIT   30 AT END OF TIME STEP   1, STRESS PERIOD  110
1
  VOLUMETRIC BUDGET FOR ENTIRE MODEL AT END OF TIME STEP  1 IN STRESS PERIOD 110
  ------------------------------------------------------------------------------

     CUMULATIVE VOLUMES      L**3       RATES FOR THIS TIME STEP      L**3/T
     ------------------                 ------------------------

           IN:                                      IN:
           ---                                      ---
             STORAGE =       1.2643E-13               STORAGE =       5.7997E-13
       CONSTANT HEAD =           0.0000         CONSTANT HEAD =           0.0000
               WELLS =           0.2200                 WELLS =           1.0000

            TOTAL IN =           0.2200              TOTAL IN =           1.0000

          OUT:                                     OUT:
          ----                                     ----
             STORAGE =       1.3194E-13               STORAGE =       6.0521E-13
       CONSTANT HEAD =           0.2200         CONSTANT HEAD =           1.0000
               WELLS =           0.0000                 WELLS =           0.0000

           TOTAL OUT =           0.2200             TOTAL OUT =           1.0000

            IN - OUT =           0.0000              IN - OUT =           0.0000

 PERCENT DISCREPANCY =           0.00     PERCENT DISCREPANCY =           0.00






          TIME SUMMARY AT END OF TIME STEP   1 IN STRESS PERIOD  110
                    SECONDS     MINUTES      HOURS       DAYS        YEARS
                    -----------------------------------------------------------
   TIME STEP LENGTH  172.80      2.8800     4.80000E-02 2.00000E-03 5.47570E-06
 STRESS PERIOD TIME  172.80      2.8800     4.80000E-02 2.00000E-03 5.47570E-06
         TOTAL TIME  19008.      316.80      5.2800     0.22000     6.02327E-04
1
1
                            STRESS PERIOD NO.  111, LENGTH =  0.2000000E-02
                            -----------------------------------------------

                              NUMBER OF TIME STEPS =     1

                               MULTIPLIER FOR DELT =     1.000

                            INITIAL TIME STEP SIZE =  0.2000000E-02

 WELL NO.  LAYER   ROW   COL   STRESS RATE         
 --------------------------------------------------
      1      1      1      1       1.000    

      1 WELL
 
 SOLVING FOR HEAD 

 OUTPUT CONTROL FOR STRESS PERIOD  111   TIME STEP   1
    SAVE HEAD FOR ALL LAYERS
    SAVE BUDGET
 UBDSV1 SAVING "         STORAGE" ON UNIT  31 AT TIME STEP  1, STRESS PERIOD 111
 UBDSV2 SAVING "   CONSTANT HEAD" ON UNIT  31 AT TIME STEP  1, STRESS PERIOD 111
 UBDSV1 SAVING "FLOW RIGHT FACE " ON UNIT  31 AT TIME STEP  1, STRESS PERIOD 111
 UBDSV4 SAVING "           WELLS" ON UNIT  31 AT TIME STEP  1, STRESS PERIOD 111

 SAVING SATURATED THICKNESS AND FLOW TERMS ON UNIT  333 FOR MT3DMS
 BY THE LINK-MT3DMS PACKAGE V6.3 AT TIME STEP    1, STRESS PERIOD  111


 HEAD WILL BE SAVED ON UNIT   30 AT END OF TIME STEP   1, STRESS PERIOD  111
1
  VOLUMETRIC BUDGET FOR ENTIRE MODEL AT END OF TIME STEP  1 IN STRESS PERIOD 111
  ------------------------------------------------------------------------------

     CUMULATIVE VOLUMES      L**3       RATES FOR THIS TIME STEP      L**3/T
     ------------------                 ------------------------

           IN:                                      IN:
           ---                                      ---
             STORAGE =       1.2759E-13               STORAGE =       5.7997E-13
       CONSTANT HEAD =           0.0000         CONSTANT HEAD =           0.0000
               WELLS =           0.2220                 WELLS =           1.0000

            TOTAL IN =           0.2220              TOTAL IN =           1.0000

          OUT:                                     OUT:
          ----                                     ----
             STORAGE =       1.3315E-13               STORAGE =       6.0521E-13
       CONSTANT HEAD =           0.2220         CONSTANT HEAD =           1.0000
               WELLS =           0.0000                 WELLS =           0.0000

           TOTAL OUT =           0.2220             TOTAL OUT =           1.0000

            IN - OUT =           0.0000              IN - OUT =           0.0000

 PERCENT DISCREPANCY =           0.00     PERCENT DISCREPANCY =           0.00






          TIME SUMMARY AT END OF TIME STEP   1 IN STRESS PERIOD  111
                    SECONDS     MINUTES      HOURS       DAYS        YEARS
                    -----------------------------------------------------------
   TIME STEP LENGTH  172.80      2.8800     4.80000E-02 2.00000E-03 5.47570E-06
 STRESS PERIOD TIME  172.80      2.8800     4.80000E-02 2.00000E-03 5.47570E-06
         TOTAL TIME  19181.      319.68      5.3280     0.22200     6.07803E-04
1
1
                            STRESS PERIOD NO.  112, LENGTH =  0.2000000E-02
                            -----------------------------------------------

                              NUMBER OF TIME STEPS =     1

                               MULTIPLIER FOR DELT =     1.000

                            INITIAL TIME STEP SIZE =  0.2000000E-02

 WELL NO.  LAYER   ROW   COL   STRESS RATE         
 --------------------------------------------------
      1      1      1      1       1.000    

      1 WELL
 
 SOLVING FOR HEAD 

 OUTPUT CONTROL FOR STRESS PERIOD  112   TIME STEP   1
    SAVE HEAD FOR ALL LAYERS
    SAVE BUDGET
 UBDSV1 SAVING "         STORAGE" ON UNIT  31 AT TIME STEP  1, STRESS PERIOD 112
 UBDSV2 SAVING "   CONSTANT HEAD" ON UNIT  31 AT TIME STEP  1, STRESS PERIOD 112
 UBDSV1 SAVING "FLOW RIGHT FACE " ON UNIT  31 AT TIME STEP  1, STRESS PERIOD 112
 UBDSV4 SAVING "           WELLS" ON UNIT  31 AT TIME STEP  1, STRESS PERIOD 112

 SAVING SATURATED THICKNESS AND FLOW TERMS ON UNIT  333 FOR MT3DMS
 BY THE LINK-MT3DMS PACKAGE V6.3 AT TIME STEP    1, STRESS PERIOD  112


 HEAD WILL BE SAVED ON UNIT   30 AT END OF TIME STEP   1, STRESS PERIOD  112
1
  VOLUMETRIC BUDGET FOR ENTIRE MODEL AT END OF TIME STEP  1 IN STRESS PERIOD 112
  ------------------------------------------------------------------------------

     CUMULATIVE VOLUMES      L**3       RATES FOR THIS TIME STEP      L**3/T
     ------------------                 ------------------------

           IN:                                      IN:
           ---                                      ---
             STORAGE =       1.2875E-13               STORAGE =       5.7997E-13
       CONSTANT HEAD =           0.0000         CONSTANT HEAD =           0.0000
               WELLS =           0.2240                 WELLS =           1.0000

            TOTAL IN =           0.2240              TOTAL IN =           1.0000

          OUT:                                     OUT:
          ----                                     ----
             STORAGE =       1.3436E-13               STORAGE =       6.0521E-13
       CONSTANT HEAD =           0.2240         CONSTANT HEAD =           1.0000
               WELLS =           0.0000                 WELLS =           0.0000

           TOTAL OUT =           0.2240             TOTAL OUT =           1.0000

            IN - OUT =           0.0000              IN - OUT =           0.0000

 PERCENT DISCREPANCY =           0.00     PERCENT DISCREPANCY =           0.00






          TIME SUMMARY AT END OF TIME STEP   1 IN STRESS PERIOD  112
                    SECONDS     MINUTES      HOURS       DAYS        YEARS
                    -----------------------------------------------------------
   TIME STEP LENGTH  172.80      2.8800     4.80000E-02 2.00000E-03 5.47570E-06
 STRESS PERIOD TIME  172.80      2.8800     4.80000E-02 2.00000E-03 5.47570E-06
         TOTAL TIME  19354.      322.56      5.3760     0.22400     6.13279E-04
1
1
                            STRESS PERIOD NO.  113, LENGTH =  0.2000000E-02
                            -----------------------------------------------

                              NUMBER OF TIME STEPS =     1

                               MULTIPLIER FOR DELT =     1.000

                            INITIAL TIME STEP SIZE =  0.2000000E-02

 WELL NO.  LAYER   ROW   COL   STRESS RATE         
 --------------------------------------------------
      1      1      1      1       1.000    

      1 WELL
 
 SOLVING FOR HEAD 

 OUTPUT CONTROL FOR STRESS PERIOD  113   TIME STEP   1
    SAVE HEAD FOR ALL LAYERS
    SAVE BUDGET
 UBDSV1 SAVING "         STORAGE" ON UNIT  31 AT TIME STEP  1, STRESS PERIOD 113
 UBDSV2 SAVING "   CONSTANT HEAD" ON UNIT  31 AT TIME STEP  1, STRESS PERIOD 113
 UBDSV1 SAVING "FLOW RIGHT FACE " ON UNIT  31 AT TIME STEP  1, STRESS PERIOD 113
 UBDSV4 SAVING "           WELLS" ON UNIT  31 AT TIME STEP  1, STRESS PERIOD 113

 SAVING SATURATED THICKNESS AND FLOW TERMS ON UNIT  333 FOR MT3DMS
 BY THE LINK-MT3DMS PACKAGE V6.3 AT TIME STEP    1, STRESS PERIOD  113


 HEAD WILL BE SAVED ON UNIT   30 AT END OF TIME STEP   1, STRESS PERIOD  113
1
  VOLUMETRIC BUDGET FOR ENTIRE MODEL AT END OF TIME STEP  1 IN STRESS PERIOD 113
  ------------------------------------------------------------------------------

     CUMULATIVE VOLUMES      L**3       RATES FOR THIS TIME STEP      L**3/T
     ------------------                 ------------------------

           IN:                                      IN:
           ---                                      ---
             STORAGE =       1.2991E-13               STORAGE =       5.7997E-13
       CONSTANT HEAD =           0.0000         CONSTANT HEAD =           0.0000
               WELLS =           0.2260                 WELLS =           1.0000

            TOTAL IN =           0.2260              TOTAL IN =           1.0000

          OUT:                                     OUT:
          ----                                     ----
             STORAGE =       1.3557E-13               STORAGE =       6.0521E-13
       CONSTANT HEAD =           0.2260         CONSTANT HEAD =           1.0000
               WELLS =           0.0000                 WELLS =           0.0000

           TOTAL OUT =           0.2260             TOTAL OUT =           1.0000

            IN - OUT =           0.0000              IN - OUT =           0.0000

 PERCENT DISCREPANCY =           0.00     PERCENT DISCREPANCY =           0.00






          TIME SUMMARY AT END OF TIME STEP   1 IN STRESS PERIOD  113
                    SECONDS     MINUTES      HOURS       DAYS        YEARS
                    -----------------------------------------------------------
   TIME STEP LENGTH  172.80      2.8800     4.80000E-02 2.00000E-03 5.47570E-06
 STRESS PERIOD TIME  172.80      2.8800     4.80000E-02 2.00000E-03 5.47570E-06
         TOTAL TIME  19526.      325.44      5.4240     0.22600     6.18755E-04
1
1
                            STRESS PERIOD NO.  114, LENGTH =  0.2000000E-02
                            -----------------------------------------------

                              NUMBER OF TIME STEPS =     1

                               MULTIPLIER FOR DELT =     1.000

                            INITIAL TIME STEP SIZE =  0.2000000E-02

 WELL NO.  LAYER   ROW   COL   STRESS RATE         
 --------------------------------------------------
      1      1      1      1       1.000    

      1 WELL
 
 SOLVING FOR HEAD 

 OUTPUT CONTROL FOR STRESS PERIOD  114   TIME STEP   1
    SAVE HEAD FOR ALL LAYERS
    SAVE BUDGET
 UBDSV1 SAVING "         STORAGE" ON UNIT  31 AT TIME STEP  1, STRESS PERIOD 114
 UBDSV2 SAVING "   CONSTANT HEAD" ON UNIT  31 AT TIME STEP  1, STRESS PERIOD 114
 UBDSV1 SAVING "FLOW RIGHT FACE " ON UNIT  31 AT TIME STEP  1, STRESS PERIOD 114
 UBDSV4 SAVING "           WELLS" ON UNIT  31 AT TIME STEP  1, STRESS PERIOD 114

 SAVING SATURATED THICKNESS AND FLOW TERMS ON UNIT  333 FOR MT3DMS
 BY THE LINK-MT3DMS PACKAGE V6.3 AT TIME STEP    1, STRESS PERIOD  114


 HEAD WILL BE SAVED ON UNIT   30 AT END OF TIME STEP   1, STRESS PERIOD  114
1
  VOLUMETRIC BUDGET FOR ENTIRE MODEL AT END OF TIME STEP  1 IN STRESS PERIOD 114
  ------------------------------------------------------------------------------

     CUMULATIVE VOLUMES      L**3       RATES FOR THIS TIME STEP      L**3/T
     ------------------                 ------------------------

           IN:                                      IN:
           ---                                      ---
             STORAGE =       1.3107E-13               STORAGE =       5.7997E-13
       CONSTANT HEAD =           0.0000         CONSTANT HEAD =           0.0000
               WELLS =           0.2280                 WELLS =           1.0000

            TOTAL IN =           0.2280              TOTAL IN =           1.0000

          OUT:                                     OUT:
          ----                                     ----
             STORAGE =       1.3678E-13               STORAGE =       6.0521E-13
       CONSTANT HEAD =           0.2280         CONSTANT HEAD =           1.0000
               WELLS =           0.0000                 WELLS =           0.0000

           TOTAL OUT =           0.2280             TOTAL OUT =           1.0000

            IN - OUT =           0.0000              IN - OUT =           0.0000

 PERCENT DISCREPANCY =           0.00     PERCENT DISCREPANCY =           0.00






          TIME SUMMARY AT END OF TIME STEP   1 IN STRESS PERIOD  114
                    SECONDS     MINUTES      HOURS       DAYS        YEARS
                    -----------------------------------------------------------
   TIME STEP LENGTH  172.80      2.8800     4.80000E-02 2.00000E-03 5.47570E-06
 STRESS PERIOD TIME  172.80      2.8800     4.80000E-02 2.00000E-03 5.47570E-06
         TOTAL TIME  19699.      328.32      5.4720     0.22800     6.24230E-04
1
1
                            STRESS PERIOD NO.  115, LENGTH =  0.2000000E-02
                            -----------------------------------------------

                              NUMBER OF TIME STEPS =     1

                               MULTIPLIER FOR DELT =     1.000

                            INITIAL TIME STEP SIZE =  0.2000000E-02

 WELL NO.  LAYER   ROW   COL   STRESS RATE         
 --------------------------------------------------
      1      1      1      1       1.000    

      1 WELL
 
 SOLVING FOR HEAD 

 OUTPUT CONTROL FOR STRESS PERIOD  115   TIME STEP   1
    SAVE HEAD FOR ALL LAYERS
    SAVE BUDGET
 UBDSV1 SAVING "         STORAGE" ON UNIT  31 AT TIME STEP  1, STRESS PERIOD 115
 UBDSV2 SAVING "   CONSTANT HEAD" ON UNIT  31 AT TIME STEP  1, STRESS PERIOD 115
 UBDSV1 SAVING "FLOW RIGHT FACE " ON UNIT  31 AT TIME STEP  1, STRESS PERIOD 115
 UBDSV4 SAVING "           WELLS" ON UNIT  31 AT TIME STEP  1, STRESS PERIOD 115

 SAVING SATURATED THICKNESS AND FLOW TERMS ON UNIT  333 FOR MT3DMS
 BY THE LINK-MT3DMS PACKAGE V6.3 AT TIME STEP    1, STRESS PERIOD  115


 HEAD WILL BE SAVED ON UNIT   30 AT END OF TIME STEP   1, STRESS PERIOD  115
1
  VOLUMETRIC BUDGET FOR ENTIRE MODEL AT END OF TIME STEP  1 IN STRESS PERIOD 115
  ------------------------------------------------------------------------------

     CUMULATIVE VOLUMES      L**3       RATES FOR THIS TIME STEP      L**3/T
     ------------------                 ------------------------

           IN:                                      IN:
           ---                                      ---
             STORAGE =       1.3223E-13               STORAGE =       5.7997E-13
       CONSTANT HEAD =           0.0000         CONSTANT HEAD =           0.0000
               WELLS =           0.2300                 WELLS =           1.0000

            TOTAL IN =           0.2300              TOTAL IN =           1.0000

          OUT:                                     OUT:
          ----                                     ----
             STORAGE =       1.3799E-13               STORAGE =       6.0521E-13
       CONSTANT HEAD =           0.2300         CONSTANT HEAD =           1.0000
               WELLS =           0.0000                 WELLS =           0.0000

           TOTAL OUT =           0.2300             TOTAL OUT =           1.0000

            IN - OUT =           0.0000              IN - OUT =           0.0000

 PERCENT DISCREPANCY =           0.00     PERCENT DISCREPANCY =           0.00






          TIME SUMMARY AT END OF TIME STEP   1 IN STRESS PERIOD  115
                    SECONDS     MINUTES      HOURS       DAYS        YEARS
                    -----------------------------------------------------------
   TIME STEP LENGTH  172.80      2.8800     4.80000E-02 2.00000E-03 5.47570E-06
 STRESS PERIOD TIME  172.80      2.8800     4.80000E-02 2.00000E-03 5.47570E-06
         TOTAL TIME  19872.      331.20      5.5200     0.23000     6.29706E-04
1
1
                            STRESS PERIOD NO.  116, LENGTH =  0.2000000E-02
                            -----------------------------------------------

                              NUMBER OF TIME STEPS =     1

                               MULTIPLIER FOR DELT =     1.000

                            INITIAL TIME STEP SIZE =  0.2000000E-02

 WELL NO.  LAYER   ROW   COL   STRESS RATE         
 --------------------------------------------------
      1      1      1      1       1.000    

      1 WELL
 
 SOLVING FOR HEAD 

 OUTPUT CONTROL FOR STRESS PERIOD  116   TIME STEP   1
    SAVE HEAD FOR ALL LAYERS
    SAVE BUDGET
 UBDSV1 SAVING "         STORAGE" ON UNIT  31 AT TIME STEP  1, STRESS PERIOD 116
 UBDSV2 SAVING "   CONSTANT HEAD" ON UNIT  31 AT TIME STEP  1, STRESS PERIOD 116
 UBDSV1 SAVING "FLOW RIGHT FACE " ON UNIT  31 AT TIME STEP  1, STRESS PERIOD 116
 UBDSV4 SAVING "           WELLS" ON UNIT  31 AT TIME STEP  1, STRESS PERIOD 116

 SAVING SATURATED THICKNESS AND FLOW TERMS ON UNIT  333 FOR MT3DMS
 BY THE LINK-MT3DMS PACKAGE V6.3 AT TIME STEP    1, STRESS PERIOD  116


 HEAD WILL BE SAVED ON UNIT   30 AT END OF TIME STEP   1, STRESS PERIOD  116
1
  VOLUMETRIC BUDGET FOR ENTIRE MODEL AT END OF TIME STEP  1 IN STRESS PERIOD 116
  ------------------------------------------------------------------------------

     CUMULATIVE VOLUMES      L**3       RATES FOR THIS TIME STEP      L**3/T
     ------------------                 ------------------------

           IN:                                      IN:
           ---                                      ---
             STORAGE =       1.3339E-13               STORAGE =       5.7997E-13
       CONSTANT HEAD =           0.0000         CONSTANT HEAD =           0.0000
               WELLS =           0.2320                 WELLS =           1.0000

            TOTAL IN =           0.2320              TOTAL IN =           1.0000

          OUT:                                     OUT:
          ----                                     ----
             STORAGE =       1.3920E-13               STORAGE =       6.0521E-13
       CONSTANT HEAD =           0.2320         CONSTANT HEAD =           1.0000
               WELLS =           0.0000                 WELLS =           0.0000

           TOTAL OUT =           0.2320             TOTAL OUT =           1.0000

            IN - OUT =           0.0000              IN - OUT =           0.0000

 PERCENT DISCREPANCY =           0.00     PERCENT DISCREPANCY =           0.00






          TIME SUMMARY AT END OF TIME STEP   1 IN STRESS PERIOD  116
                    SECONDS     MINUTES      HOURS       DAYS        YEARS
                    -----------------------------------------------------------
   TIME STEP LENGTH  172.80      2.8800     4.80000E-02 2.00000E-03 5.47570E-06
 STRESS PERIOD TIME  172.80      2.8800     4.80000E-02 2.00000E-03 5.47570E-06
         TOTAL TIME  20045.      334.08      5.5680     0.23200     6.35182E-04
1
1
                            STRESS PERIOD NO.  117, LENGTH =  0.2000000E-02
                            -----------------------------------------------

                              NUMBER OF TIME STEPS =     1

                               MULTIPLIER FOR DELT =     1.000

                            INITIAL TIME STEP SIZE =  0.2000000E-02

 WELL NO.  LAYER   ROW   COL   STRESS RATE         
 --------------------------------------------------
      1      1      1      1       1.000    

      1 WELL
 
 SOLVING FOR HEAD 

 OUTPUT CONTROL FOR STRESS PERIOD  117   TIME STEP   1
    SAVE HEAD FOR ALL LAYERS
    SAVE BUDGET
 UBDSV1 SAVING "         STORAGE" ON UNIT  31 AT TIME STEP  1, STRESS PERIOD 117
 UBDSV2 SAVING "   CONSTANT HEAD" ON UNIT  31 AT TIME STEP  1, STRESS PERIOD 117
 UBDSV1 SAVING "FLOW RIGHT FACE " ON UNIT  31 AT TIME STEP  1, STRESS PERIOD 117
 UBDSV4 SAVING "           WELLS" ON UNIT  31 AT TIME STEP  1, STRESS PERIOD 117

 SAVING SATURATED THICKNESS AND FLOW TERMS ON UNIT  333 FOR MT3DMS
 BY THE LINK-MT3DMS PACKAGE V6.3 AT TIME STEP    1, STRESS PERIOD  117


 HEAD WILL BE SAVED ON UNIT   30 AT END OF TIME STEP   1, STRESS PERIOD  117
1
  VOLUMETRIC BUDGET FOR ENTIRE MODEL AT END OF TIME STEP  1 IN STRESS PERIOD 117
  ------------------------------------------------------------------------------

     CUMULATIVE VOLUMES      L**3       RATES FOR THIS TIME STEP      L**3/T
     ------------------                 ------------------------

           IN:                                      IN:
           ---                                      ---
             STORAGE =       1.3455E-13               STORAGE =       5.7997E-13
       CONSTANT HEAD =           0.0000         CONSTANT HEAD =           0.0000
               WELLS =           0.2340                 WELLS =           1.0000

            TOTAL IN =           0.2340              TOTAL IN =           1.0000

          OUT:                                     OUT:
          ----                                     ----
             STORAGE =       1.4041E-13               STORAGE =       6.0521E-13
       CONSTANT HEAD =           0.2340         CONSTANT HEAD =           1.0000
               WELLS =           0.0000                 WELLS =           0.0000

           TOTAL OUT =           0.2340             TOTAL OUT =           1.0000

            IN - OUT =           0.0000              IN - OUT =           0.0000

 PERCENT DISCREPANCY =           0.00     PERCENT DISCREPANCY =           0.00






          TIME SUMMARY AT END OF TIME STEP   1 IN STRESS PERIOD  117
                    SECONDS     MINUTES      HOURS       DAYS        YEARS
                    -----------------------------------------------------------
   TIME STEP LENGTH  172.80      2.8800     4.80000E-02 2.00000E-03 5.47570E-06
 STRESS PERIOD TIME  172.80      2.8800     4.80000E-02 2.00000E-03 5.47570E-06
         TOTAL TIME  20218.      336.96      5.6160     0.23400     6.40657E-04
1
1
                            STRESS PERIOD NO.  118, LENGTH =  0.2000000E-02
                            -----------------------------------------------

                              NUMBER OF TIME STEPS =     1

                               MULTIPLIER FOR DELT =     1.000

                            INITIAL TIME STEP SIZE =  0.2000000E-02

 WELL NO.  LAYER   ROW   COL   STRESS RATE         
 --------------------------------------------------
      1      1      1      1       1.000    

      1 WELL
 
 SOLVING FOR HEAD 

 OUTPUT CONTROL FOR STRESS PERIOD  118   TIME STEP   1
    SAVE HEAD FOR ALL LAYERS
    SAVE BUDGET
 UBDSV1 SAVING "         STORAGE" ON UNIT  31 AT TIME STEP  1, STRESS PERIOD 118
 UBDSV2 SAVING "   CONSTANT HEAD" ON UNIT  31 AT TIME STEP  1, STRESS PERIOD 118
 UBDSV1 SAVING "FLOW RIGHT FACE " ON UNIT  31 AT TIME STEP  1, STRESS PERIOD 118
 UBDSV4 SAVING "           WELLS" ON UNIT  31 AT TIME STEP  1, STRESS PERIOD 118

 SAVING SATURATED THICKNESS AND FLOW TERMS ON UNIT  333 FOR MT3DMS
 BY THE LINK-MT3DMS PACKAGE V6.3 AT TIME STEP    1, STRESS PERIOD  118


 HEAD WILL BE SAVED ON UNIT   30 AT END OF TIME STEP   1, STRESS PERIOD  118
1
  VOLUMETRIC BUDGET FOR ENTIRE MODEL AT END OF TIME STEP  1 IN STRESS PERIOD 118
  ------------------------------------------------------------------------------

     CUMULATIVE VOLUMES      L**3       RATES FOR THIS TIME STEP      L**3/T
     ------------------                 ------------------------

           IN:                                      IN:
           ---                                      ---
             STORAGE =       1.3571E-13               STORAGE =       5.7997E-13
       CONSTANT HEAD =           0.0000         CONSTANT HEAD =           0.0000
               WELLS =           0.2360                 WELLS =           1.0000

            TOTAL IN =           0.2360              TOTAL IN =           1.0000

          OUT:                                     OUT:
          ----                                     ----
             STORAGE =       1.4162E-13               STORAGE =       6.0521E-13
       CONSTANT HEAD =           0.2360         CONSTANT HEAD =           1.0000
               WELLS =           0.0000                 WELLS =           0.0000

           TOTAL OUT =           0.2360             TOTAL OUT =           1.0000

            IN - OUT =           0.0000              IN - OUT =           0.0000

 PERCENT DISCREPANCY =           0.00     PERCENT DISCREPANCY =           0.00






          TIME SUMMARY AT END OF TIME STEP   1 IN STRESS PERIOD  118
                    SECONDS     MINUTES      HOURS       DAYS        YEARS
                    -----------------------------------------------------------
   TIME STEP LENGTH  172.80      2.8800     4.80000E-02 2.00000E-03 5.47570E-06
 STRESS PERIOD TIME  172.80      2.8800     4.80000E-02 2.00000E-03 5.47570E-06
         TOTAL TIME  20390.      339.84      5.6640     0.23600     6.46133E-04
1
1
                            STRESS PERIOD NO.  119, LENGTH =  0.2000000E-02
                            -----------------------------------------------

                              NUMBER OF TIME STEPS =     1

                               MULTIPLIER FOR DELT =     1.000

                            INITIAL TIME STEP SIZE =  0.2000000E-02

 WELL NO.  LAYER   ROW   COL   STRESS RATE         
 --------------------------------------------------
      1      1      1      1       1.000    

      1 WELL
 
 SOLVING FOR HEAD 

 OUTPUT CONTROL FOR STRESS PERIOD  119   TIME STEP   1
    SAVE HEAD FOR ALL LAYERS
    SAVE BUDGET
 UBDSV1 SAVING "         STORAGE" ON UNIT  31 AT TIME STEP  1, STRESS PERIOD 119
 UBDSV2 SAVING "   CONSTANT HEAD" ON UNIT  31 AT TIME STEP  1, STRESS PERIOD 119
 UBDSV1 SAVING "FLOW RIGHT FACE " ON UNIT  31 AT TIME STEP  1, STRESS PERIOD 119
 UBDSV4 SAVING "           WELLS" ON UNIT  31 AT TIME STEP  1, STRESS PERIOD 119

 SAVING SATURATED THICKNESS AND FLOW TERMS ON UNIT  333 FOR MT3DMS
 BY THE LINK-MT3DMS PACKAGE V6.3 AT TIME STEP    1, STRESS PERIOD  119


 HEAD WILL BE SAVED ON UNIT   30 AT END OF TIME STEP   1, STRESS PERIOD  119
1
  VOLUMETRIC BUDGET FOR ENTIRE MODEL AT END OF TIME STEP  1 IN STRESS PERIOD 119
  ------------------------------------------------------------------------------

     CUMULATIVE VOLUMES      L**3       RATES FOR THIS TIME STEP      L**3/T
     ------------------                 ------------------------

           IN:                                      IN:
           ---                                      ---
             STORAGE =       1.3687E-13               STORAGE =       5.7997E-13
       CONSTANT HEAD =           0.0000         CONSTANT HEAD =           0.0000
               WELLS =           0.2380                 WELLS =           1.0000

            TOTAL IN =           0.2380              TOTAL IN =           1.0000

          OUT:                                     OUT:
          ----                                     ----
             STORAGE =       1.4283E-13               STORAGE =       6.0521E-13
       CONSTANT HEAD =           0.2380         CONSTANT HEAD =           1.0000
               WELLS =           0.0000                 WELLS =           0.0000

           TOTAL OUT =           0.2380             TOTAL OUT =           1.0000

            IN - OUT =           0.0000              IN - OUT =           0.0000

 PERCENT DISCREPANCY =           0.00     PERCENT DISCREPANCY =           0.00






          TIME SUMMARY AT END OF TIME STEP   1 IN STRESS PERIOD  119
                    SECONDS     MINUTES      HOURS       DAYS        YEARS
                    -----------------------------------------------------------
   TIME STEP LENGTH  172.80      2.8800     4.80000E-02 2.00000E-03 5.47570E-06
 STRESS PERIOD TIME  172.80      2.8800     4.80000E-02 2.00000E-03 5.47570E-06
         TOTAL TIME  20563.      342.72      5.7120     0.23800     6.51609E-04
1
1
                            STRESS PERIOD NO.  120, LENGTH =  0.2000000E-02
                            -----------------------------------------------

                              NUMBER OF TIME STEPS =     1

                               MULTIPLIER FOR DELT =     1.000

                            INITIAL TIME STEP SIZE =  0.2000000E-02

 WELL NO.  LAYER   ROW   COL   STRESS RATE         
 --------------------------------------------------
      1      1      1      1       1.000    

      1 WELL
 
 SOLVING FOR HEAD 

 OUTPUT CONTROL FOR STRESS PERIOD  120   TIME STEP   1
    SAVE HEAD FOR ALL LAYERS
    SAVE BUDGET
 UBDSV1 SAVING "         STORAGE" ON UNIT  31 AT TIME STEP  1, STRESS PERIOD 120
 UBDSV2 SAVING "   CONSTANT HEAD" ON UNIT  31 AT TIME STEP  1, STRESS PERIOD 120
 UBDSV1 SAVING "FLOW RIGHT FACE " ON UNIT  31 AT TIME STEP  1, STRESS PERIOD 120
 UBDSV4 SAVING "           WELLS" ON UNIT  31 AT TIME STEP  1, STRESS PERIOD 120

 SAVING SATURATED THICKNESS AND FLOW TERMS ON UNIT  333 FOR MT3DMS
 BY THE LINK-MT3DMS PACKAGE V6.3 AT TIME STEP    1, STRESS PERIOD  120


 HEAD WILL BE SAVED ON UNIT   30 AT END OF TIME STEP   1, STRESS PERIOD  120
1
  VOLUMETRIC BUDGET FOR ENTIRE MODEL AT END OF TIME STEP  1 IN STRESS PERIOD 120
  ------------------------------------------------------------------------------

     CUMULATIVE VOLUMES      L**3       RATES FOR THIS TIME STEP      L**3/T
     ------------------                 ------------------------

           IN:                                      IN:
           ---                                      ---
             STORAGE =       1.3803E-13               STORAGE =       5.7997E-13
       CONSTANT HEAD =           0.0000         CONSTANT HEAD =           0.0000
               WELLS =           0.2400                 WELLS =           1.0000

            TOTAL IN =           0.2400              TOTAL IN =           1.0000

          OUT:                                     OUT:
          ----                                     ----
             STORAGE =       1.4404E-13               STORAGE =       6.0521E-13
       CONSTANT HEAD =           0.2400         CONSTANT HEAD =           1.0000
               WELLS =           0.0000                 WELLS =           0.0000

           TOTAL OUT =           0.2400             TOTAL OUT =           1.0000

            IN - OUT =           0.0000              IN - OUT =           0.0000

 PERCENT DISCREPANCY =           0.00     PERCENT DISCREPANCY =           0.00






          TIME SUMMARY AT END OF TIME STEP   1 IN STRESS PERIOD  120
                    SECONDS     MINUTES      HOURS       DAYS        YEARS
                    -----------------------------------------------------------
   TIME STEP LENGTH  172.80      2.8800     4.80000E-02 2.00000E-03 5.47570E-06
 STRESS PERIOD TIME  172.80      2.8800     4.80000E-02 2.00000E-03 5.47570E-06
         TOTAL TIME  20736.      345.60      5.7600     0.24000     6.57085E-04
1
