                                  MODFLOW-2005     
      U.S. GEOLOGICAL SURVEY MODULAR FINITE-DIFFERENCE GROUND-WATER FLOW MODEL
                            VERSION 1.9.01 5/01/2012

 LIST FILE: ex5.lst
                         UNIT    2

 OPENING ex5.dis
 FILE TYPE:DIS   UNIT   10   STATUS:OLD    
 FORMAT:FORMATTED              ACCESS:SEQUENTIAL          

 OPENING ex5.bas6
 FILE TYPE:BAS6   UNIT   11   STATUS:OLD    
 FORMAT:FORMATTED              ACCESS:SEQUENTIAL          

 OPENING ex5.lpf
 FILE TYPE:LPF   UNIT   12   STATUS:OLD    
 FORMAT:FORMATTED              ACCESS:SEQUENTIAL          

 OPENING ex5.pcg
 FILE TYPE:PCG   UNIT   14   STATUS:OLD    
 FORMAT:FORMATTED              ACCESS:SEQUENTIAL          

 OPENING ex5.oc
 FILE TYPE:OC   UNIT   26   STATUS:OLD    
 FORMAT:FORMATTED              ACCESS:SEQUENTIAL          

 OPENING ex5.head
 FILE TYPE:DATA(BINARY)   UNIT   30   STATUS:UNKNOWN
 FORMAT:BINARY                 ACCESS:SEQUENTIAL          

 OPENING ex5.budget
 FILE TYPE:DATA(BINARY)   UNIT   31   STATUS:UNKNOWN
 FORMAT:BINARY                 ACCESS:SEQUENTIAL          

 OPENING ex5.lmt
 FILE TYPE:LMT6   UNIT   28   STATUS:OLD    
 FORMAT:FORMATTED              ACCESS:SEQUENTIAL          

 OPENING ex5.wel
 FILE TYPE:WEL   UNIT   36   STATUS:OLD    
 FORMAT:FORMATTED              ACCESS:SEQUENTIAL          

 BAS -- BASIC PACKAGE, VERSION 7, 5/2/2005 INPUT READ FROM UNIT   11
 
 MODFLOW was compiled using mixed precision
 Precision of REAL variables:           6
 Precision of DOUBLE PRECISION variables:          15

 DISCRETIZATION INPUT DATA READ FROM UNIT   10
    1 LAYERS         1 ROWS        16 COLUMNS
  164 STRESS PERIOD(S) IN SIMULATION
 MODEL TIME UNIT IS DAYS
 MODEL LENGTH UNIT IS METERS
  Confining bed flag for each layer:
   0

                     DELR =  3.312500E-03

                     DELC =   1.00000    

 TOP ELEVATION OF LAYER 1 =  2.874330E-03

   MODEL LAYER BOTTOM EL. =   0.00000     FOR LAYER   1


 STRESS PERIOD     LENGTH       TIME STEPS     MULTIPLIER FOR DELT    SS FLAG
 ----------------------------------------------------------------------------
        1        1.4580000E-02      1                    1.000         SS
        2        1.4580000E-02      1                    1.000         TR
        3        1.4580000E-02      1                    1.000         TR
        4        1.4580000E-02      1                    1.000         TR
        5        1.4580000E-02      1                    1.000         TR
        6        1.4580000E-02      1                    1.000         TR
        7        1.4580000E-02      1                    1.000         TR
        8        1.4580000E-02      1                    1.000         TR
        9        1.4580000E-02      1                    1.000         TR
       10        1.4580000E-02      1                    1.000         TR
       11        1.4580000E-02      1                    1.000         TR
       12        1.4580000E-02      1                    1.000         TR
       13        1.4580000E-02      1                    1.000         TR
       14        1.4580000E-02      1                    1.000         TR
       15        1.4580000E-02      1                    1.000         TR
       16        1.4580000E-02      1                    1.000         TR
       17        1.4580000E-02      1                    1.000         TR
       18        1.4580000E-02      1                    1.000         TR
       19        1.4580000E-02      1                    1.000         TR
       20        1.4580000E-02      1                    1.000         TR
       21        1.4580000E-02      1                    1.000         TR
       22        1.4580000E-02      1                    1.000         TR
       23        1.4580000E-02      1                    1.000         TR
       24        1.4580000E-02      1                    1.000         TR
       25        1.4580000E-02      1                    1.000         TR
       26        1.4580000E-02      1                    1.000         TR
       27        1.4580000E-02      1                    1.000         TR
       28        1.4580000E-02      1                    1.000         TR
       29        1.4580000E-02      1                    1.000         TR
       30        1.4580000E-02      1                    1.000         TR
       31        1.4580000E-02      1                    1.000         TR
       32        1.4580000E-02      1                    1.000         TR
       33        1.4580000E-02      1                    1.000         TR
       34        1.4580000E-02      1                    1.000         TR
       35        1.4580000E-02      1                    1.000         TR
       36        1.4580000E-02      1                    1.000         TR
       37        1.4580000E-02      1                    1.000         TR
       38        1.4580000E-02      1                    1.000         TR
       39        1.4580000E-02      1                    1.000         TR
       40        1.4580000E-02      1                    1.000         TR
       41        1.4580000E-02      1                    1.000         TR
       42        1.4580000E-02      1                    1.000         TR
       43        1.4580000E-02      1                    1.000         TR
       44        1.4580000E-02      1                    1.000         TR
       45        1.4580000E-02      1                    1.000         TR
       46        1.4580000E-02      1                    1.000         TR
       47        1.4580000E-02      1                    1.000         TR
       48        1.4580000E-02      1                    1.000         TR
       49        1.4580000E-02      1                    1.000         TR
       50        1.4580000E-02      1                    1.000         TR
       51        1.4580000E-02      1                    1.000         TR
       52        1.4580000E-02      1                    1.000         TR
       53        1.4580000E-02      1                    1.000         TR
       54        1.4580000E-02      1                    1.000         TR
       55        1.4580000E-02      1                    1.000         TR
       56        1.4580000E-02      1                    1.000         TR
       57        1.4580000E-02      1                    1.000         TR
       58        1.4580000E-02      1                    1.000         TR
       59        1.4580000E-02      1                    1.000         TR
       60        1.4580000E-02      1                    1.000         TR
       61        1.4580000E-02      1                    1.000         TR
       62        1.4580000E-02      1                    1.000         TR
       63        1.4580000E-02      1                    1.000         TR
       64        1.4580000E-02      1                    1.000         TR
       65        1.4580000E-02      1                    1.000         TR
       66        1.4580000E-02      1                    1.000         TR
       67        1.4580000E-02      1                    1.000         TR
       68        1.4580000E-02      1                    1.000         TR
       69        1.4580000E-02      1                    1.000         TR
       70        1.4580000E-02      1                    1.000         TR
       71        1.4580000E-02      1                    1.000         TR
       72        1.4580000E-02      1                    1.000         TR
       73        1.4580000E-02      1                    1.000         TR
       74        1.4580000E-02      1                    1.000         TR
       75        1.4580000E-02      1                    1.000         TR
       76        1.4580000E-02      1                    1.000         TR
       77        1.4580000E-02      1                    1.000         TR
       78        1.4580000E-02      1                    1.000         TR
       79        1.4580000E-02      1                    1.000         TR
       80        1.4580000E-02      1                    1.000         TR
       81        1.4580000E-02      1                    1.000         TR
       82        1.4580000E-02      1                    1.000         TR
       83        1.4580000E-02      1                    1.000         TR
       84        1.4580000E-02      1                    1.000         TR
       85        1.4580000E-02      1                    1.000         TR
       86        1.4580000E-02      1                    1.000         TR
       87        1.4580000E-02      1                    1.000         TR
       88        1.4580000E-02      1                    1.000         TR
       89        1.4580000E-02      1                    1.000         TR
       90        1.4580000E-02      1                    1.000         TR
       91        1.4580000E-02      1                    1.000         TR
       92        1.4580000E-02      1                    1.000         TR
       93        1.4580000E-02      1                    1.000         TR
       94        1.4580000E-02      1                    1.000         TR
       95        1.4580000E-02      1                    1.000         TR
       96        1.4580000E-02      1                    1.000         TR
       97        1.4580000E-02      1                    1.000         TR
       98        1.4580000E-02      1                    1.000         TR
       99        1.4580000E-02      1                    1.000         TR
      100        1.4580000E-02      1                    1.000         TR
      101        1.4580000E-02      1                    1.000         TR
      102        1.4580000E-02      1                    1.000         TR
      103        1.4580000E-02      1                    1.000         TR
      104        1.4580000E-02      1                    1.000         TR
      105        1.4580000E-02      1                    1.000         TR
      106        1.4580000E-02      1                    1.000         TR
      107        1.4580000E-02      1                    1.000         TR
      108        1.4580000E-02      1                    1.000         TR
      109        1.4580000E-02      1                    1.000         TR
      110        1.4580000E-02      1                    1.000         TR
      111        1.4580000E-02      1                    1.000         TR
      112        1.4580000E-02      1                    1.000         TR
      113        1.4580000E-02      1                    1.000         TR
      114        1.4580000E-02      1                    1.000         TR
      115        1.4580000E-02      1                    1.000         TR
      116        1.4580000E-02      1                    1.000         TR
      117        1.4580000E-02      1                    1.000         TR
      118        1.4580000E-02      1                    1.000         TR
      119        1.4580000E-02      1                    1.000         TR
      120        1.4580000E-02      1                    1.000         TR
      121        1.4580000E-02      1                    1.000         TR
      122        1.4580000E-02      1                    1.000         TR
      123        1.4580000E-02      1                    1.000         TR
      124        1.4580000E-02      1                    1.000         TR
      125        1.4580000E-02      1                    1.000         TR
      126        1.4580000E-02      1                    1.000         TR
      127        1.4580000E-02      1                    1.000         TR
      128        1.4580000E-02      1                    1.000         TR
      129        1.4580000E-02      1                    1.000         TR
      130        1.4580000E-02      1                    1.000         TR
      131        1.4580000E-02      1                    1.000         TR
      132        1.4580000E-02      1                    1.000         TR
      133        1.4580000E-02      1                    1.000         TR
      134        1.4580000E-02      1                    1.000         TR
      135        1.4580000E-02      1                    1.000         TR
      136        1.4580000E-02      1                    1.000         TR
      137        1.4580000E-02      1                    1.000         TR
      138        1.4580000E-02      1                    1.000         TR
      139        1.4580000E-02      1                    1.000         TR
      140        1.4580000E-02      1                    1.000         TR
      141        1.4580000E-02      1                    1.000         TR
      142        1.4580000E-02      1                    1.000         TR
      143        1.4580000E-02      1                    1.000         TR
      144        1.4580000E-02      1                    1.000         TR
      145        1.4580000E-02      1                    1.000         TR
      146        1.4580000E-02      1                    1.000         TR
      147        1.4580000E-02      1                    1.000         TR
      148        1.4580000E-02      1                    1.000         TR
      149        1.4580000E-02      1                    1.000         TR
      150        1.4580000E-02      1                    1.000         TR
      151        1.4580000E-02      1                    1.000         TR
      152        1.4580000E-02      1                    1.000         TR
      153        1.4580000E-02      1                    1.000         TR
      154        1.4580000E-02      1                    1.000         TR
      155        1.4580000E-02      1                    1.000         TR
      156        1.4580000E-02      1                    1.000         TR
      157        1.4580000E-02      1                    1.000         TR
      158        1.4580000E-02      1                    1.000         TR
      159        1.4580000E-02      1                    1.000         TR
      160        1.4580000E-02      1                    1.000         TR
      161        1.4580000E-02      1                    1.000         TR
      162        1.4580000E-02      1                    1.000         TR
      163        1.4580000E-02      1                    1.000         TR
      164        1.4580000E-02      1                    1.000         TR

 COMBINED STEADY-STATE AND TRANSIENT SIMULATION



 
 #         0                                                                     
 THE FREE FORMAT OPTION HAS BEEN SELECTED



                     BOUNDARY ARRAY FOR LAYER   1
 READING ON UNIT   11 WITH FORMAT: (16I3)              

        1   2   3   4   5   6   7   8   9  10  11  12  13  14  15  16
 ....................................................................
   1    1   1   1   1   1   1   1   1   1   1   1   1   1   1   1  -1

 AQUIFER HEAD WILL BE SET TO   0.0000     AT ALL NO-FLOW NODES (IBOUND=0).

             INITIAL HEAD =   1.00000     FOR LAYER   1

 OUTPUT CONTROL IS SPECIFIED ONLY AT TIME STEPS FOR WHICH OUTPUT IS DESIRED
 COMPACT CELL-BY-CELL BUDGET FILES WILL BE WRITTEN
 HEAD PRINT FORMAT CODE IS   0    DRAWDOWN PRINT FORMAT CODE IS   0
 HEADS WILL BE SAVED ON UNIT   30    DRAWDOWNS WILL BE SAVED ON UNIT    0

 LPF -- LAYER-PROPERTY FLOW PACKAGE, VERSION 7, 5/2/2005
         INPUT READ FROM UNIT   12
 CELL-BY-CELL FLOWS WILL BE SAVED ON UNIT   31
 HEAD AT CELLS THAT CONVERT TO DRY=  1.00000E-02
 No named parameters

   LAYER FLAGS:
 LAYER       LAYTYP        LAYAVG         CHANI        LAYVKA        LAYWET
 ---------------------------------------------------------------------------
    1             0             0     1.000E+00             0             0

   INTERPRETATION OF LAYER FLAGS:
                        INTERBLOCK     HORIZONTAL    DATA IN
         LAYER TYPE   TRANSMISSIVITY   ANISOTROPY   ARRAY VKA   WETTABILITY
 LAYER      (LAYTYP)      (LAYAVG)       (CHANI)      (LAYVKA)      (LAYWET)
 ---------------------------------------------------------------------------
    1      CONFINED      HARMONIC     1.000E+00    VERTICAL K  NON-WETTABLE

 WETTING CAPABILITY IS NOT ACTIVE IN ANY LAYER

    HYD. COND. ALONG ROWS =   1.00000     FOR LAYER   1

      VERTICAL HYD. COND. =   1.00000     FOR LAYER   1

         SPECIFIC STORAGE =  1.000000E-06 FOR LAYER   1

 WEL -- WELL PACKAGE, VERSION 7, 5/2/2005 INPUT READ FROM UNIT   36
 No named parameters
 MAXIMUM OF      1 ACTIVE WELLS AT ONE TIME
 CELL-BY-CELL FLOWS WILL BE SAVED ON UNIT   31


     0 Well parameters

 PCG -- CONJUGATE-GRADIENT SOLUTION PACKAGE, VERSION 7, 5/2/2005
 MAXIMUM OF     10 CALLS OF SOLUTION ROUTINE
 MAXIMUM OF  30000 INTERNAL ITERATIONS PER CALL TO SOLUTION ROUTINE
 MATRIX PRECONDITIONING TYPE :    1



                                    SOLUTION BY THE CONJUGATE-GRADIENT METHOD
                                   -------------------------------------------
                    MAXIMUM NUMBER OF CALLS TO PCG ROUTINE =       10
                        MAXIMUM ITERATIONS PER CALL TO PCG =    30000
                               MATRIX PRECONDITIONING TYPE =        1
        RELAXATION FACTOR (ONLY USED WITH PRECOND. TYPE 1) =    0.10000E+01
 PARAMETER OF POLYNOMIAL PRECOND. = 2 (2) OR IS CALCULATED :        2
                         HEAD CHANGE CRITERION FOR CLOSURE =    0.10000E-03
                     RESIDUAL CHANGE CRITERION FOR CLOSURE =    0.10000E-02
            PCG HEAD AND RESIDUAL CHANGE PRINTOUT INTERVAL =      999
     PRINTING FROM SOLVER IS LIMITED(1) OR SUPPRESSED (>1) =        2
                            STEADY-STATE DAMPING PARAMETER =    0.10000E+01
                               TRANSIENT DAMPING PARAMETER =    0.10000E+01

 WARNING READING LMT PACKAGE INPUT DATA:
 [STANDARD] HEADER NO LONGER SUPPORTED; [EXTENDED] HEADER USED INSTEAD.


 ***Link-MT3DMS Package v7***
 OPENING LINK-MT3DMS OUTPUT FILE: ex5.flo                                                                                                                                                                                                 
 ON UNIT NUMBER:   333
 FILE TYPE: UNFORMATTED
 HEADER OPTION: EXTENDED
 ***Link-MT3DMS Package v7***

1
                            STRESS PERIOD NO.    1, LENGTH =  0.1458000E-01
                            -----------------------------------------------

                              NUMBER OF TIME STEPS =     1

                               MULTIPLIER FOR DELT =     1.000

                            INITIAL TIME STEP SIZE =  0.1458000E-01

 WELL NO.  LAYER   ROW   COL   STRESS RATE         
 --------------------------------------------------
      1      1      1      1      0.2400E-03

      1 WELL 
 
 SOLVING FOR HEAD 

 OUTPUT CONTROL FOR STRESS PERIOD    1   TIME STEP    1
    SAVE HEAD FOR ALL LAYERS
    SAVE BUDGET
 UBDSV2 SAVING "   CONSTANT HEAD" ON UNIT  31 AT TIME STEP  1, STRESS PERIOD   1
 UBDSV1 SAVING "FLOW RIGHT FACE " ON UNIT  31 AT TIME STEP  1, STRESS PERIOD   1
 UBDSV4 SAVING "           WELLS" ON UNIT  31 AT TIME STEP  1, STRESS PERIOD   1

 SAVING SATURATED THICKNESS AND FLOW TERMS ON UNIT  333 FOR MT3DMS
 BY THE LINK-MT3DMS PACKAGE V7 AT TIME STEP    1, STRESS PERIOD    1


 HEAD WILL BE SAVED ON UNIT   30 AT END OF TIME STEP    1, STRESS PERIOD    1
1
  VOLUMETRIC BUDGET FOR ENTIRE MODEL AT END OF TIME STEP    1, STRESS PERIOD   1
  ------------------------------------------------------------------------------

     CUMULATIVE VOLUMES      L**3       RATES FOR THIS TIME STEP      L**3/T
     ------------------                 ------------------------

           IN:                                      IN:
           ---                                      ---
             STORAGE =           0.0000               STORAGE =           0.0000
       CONSTANT HEAD =           0.0000         CONSTANT HEAD =           0.0000
               WELLS =       3.4992E-06                 WELLS =       2.4000E-04

            TOTAL IN =       3.4992E-06              TOTAL IN =       2.4000E-04

          OUT:                                     OUT:
          ----                                     ----
             STORAGE =           0.0000               STORAGE =           0.0000
       CONSTANT HEAD =       3.4992E-06         CONSTANT HEAD =       2.4000E-04
               WELLS =           0.0000                 WELLS =           0.0000

           TOTAL OUT =       3.4992E-06             TOTAL OUT =       2.4000E-04

            IN - OUT =      -2.2737E-13              IN - OUT =      -1.4552E-11

 PERCENT DISCREPANCY =           0.00     PERCENT DISCREPANCY =           0.00






         TIME SUMMARY AT END OF TIME STEP    1 IN STRESS PERIOD    1
                    SECONDS     MINUTES      HOURS       DAYS        YEARS
                    -----------------------------------------------------------
   TIME STEP LENGTH  1259.7      20.995     0.34992     1.45800E-02 3.99179E-05
 STRESS PERIOD TIME  1259.7      20.995     0.34992     1.45800E-02 3.99179E-05
         TOTAL TIME  1259.7      20.995     0.34992     1.45800E-02 3.99179E-05
1
1
                            STRESS PERIOD NO.    2, LENGTH =  0.1458000E-01
                            -----------------------------------------------

                              NUMBER OF TIME STEPS =     1

                               MULTIPLIER FOR DELT =     1.000

                            INITIAL TIME STEP SIZE =  0.1458000E-01

 WELL NO.  LAYER   ROW   COL   STRESS RATE         
 --------------------------------------------------
      1      1      1      1      0.2400E-03

      1 WELL 
 
 SOLVING FOR HEAD 

 OUTPUT CONTROL FOR STRESS PERIOD    2   TIME STEP    1
    SAVE HEAD FOR ALL LAYERS
    SAVE BUDGET
 UBDSV1 SAVING "         STORAGE" ON UNIT  31 AT TIME STEP  1, STRESS PERIOD   2
 UBDSV2 SAVING "   CONSTANT HEAD" ON UNIT  31 AT TIME STEP  1, STRESS PERIOD   2
 UBDSV1 SAVING "FLOW RIGHT FACE " ON UNIT  31 AT TIME STEP  1, STRESS PERIOD   2
 UBDSV4 SAVING "           WELLS" ON UNIT  31 AT TIME STEP  1, STRESS PERIOD   2

 SAVING SATURATED THICKNESS AND FLOW TERMS ON UNIT  333 FOR MT3DMS
 BY THE LINK-MT3DMS PACKAGE V7 AT TIME STEP    1, STRESS PERIOD    2


 HEAD WILL BE SAVED ON UNIT   30 AT END OF TIME STEP    1, STRESS PERIOD    2
1
  VOLUMETRIC BUDGET FOR ENTIRE MODEL AT END OF TIME STEP    1, STRESS PERIOD   2
  ------------------------------------------------------------------------------

     CUMULATIVE VOLUMES      L**3       RATES FOR THIS TIME STEP      L**3/T
     ------------------                 ------------------------

           IN:                                      IN:
           ---                                      ---
             STORAGE =           0.0000               STORAGE =           0.0000
       CONSTANT HEAD =           0.0000         CONSTANT HEAD =           0.0000
               WELLS =       6.9984E-06                 WELLS =       2.4000E-04

            TOTAL IN =       6.9984E-06              TOTAL IN =       2.4000E-04

          OUT:                                     OUT:
          ----                                     ----
             STORAGE =           0.0000               STORAGE =           0.0000
       CONSTANT HEAD =       6.9984E-06         CONSTANT HEAD =       2.4000E-04
               WELLS =           0.0000                 WELLS =           0.0000

           TOTAL OUT =       6.9984E-06             TOTAL OUT =       2.4000E-04

            IN - OUT =      -4.5475E-13              IN - OUT =      -1.4552E-11

 PERCENT DISCREPANCY =           0.00     PERCENT DISCREPANCY =           0.00






         TIME SUMMARY AT END OF TIME STEP    1 IN STRESS PERIOD    2
                    SECONDS     MINUTES      HOURS       DAYS        YEARS
                    -----------------------------------------------------------
   TIME STEP LENGTH  1259.7      20.995     0.34992     1.45800E-02 3.99179E-05
 STRESS PERIOD TIME  1259.7      20.995     0.34992     1.45800E-02 3.99179E-05
         TOTAL TIME  2519.4      41.990     0.69984     2.91600E-02 7.98357E-05
1
1
                            STRESS PERIOD NO.    3, LENGTH =  0.1458000E-01
                            -----------------------------------------------

                              NUMBER OF TIME STEPS =     1

                               MULTIPLIER FOR DELT =     1.000

                            INITIAL TIME STEP SIZE =  0.1458000E-01

 WELL NO.  LAYER   ROW   COL   STRESS RATE         
 --------------------------------------------------
      1      1      1      1      0.2400E-03

      1 WELL 
 
 SOLVING FOR HEAD 

 OUTPUT CONTROL FOR STRESS PERIOD    3   TIME STEP    1
    SAVE HEAD FOR ALL LAYERS
    SAVE BUDGET
 UBDSV1 SAVING "         STORAGE" ON UNIT  31 AT TIME STEP  1, STRESS PERIOD   3
 UBDSV2 SAVING "   CONSTANT HEAD" ON UNIT  31 AT TIME STEP  1, STRESS PERIOD   3
 UBDSV1 SAVING "FLOW RIGHT FACE " ON UNIT  31 AT TIME STEP  1, STRESS PERIOD   3
 UBDSV4 SAVING "           WELLS" ON UNIT  31 AT TIME STEP  1, STRESS PERIOD   3

 SAVING SATURATED THICKNESS AND FLOW TERMS ON UNIT  333 FOR MT3DMS
 BY THE LINK-MT3DMS PACKAGE V7 AT TIME STEP    1, STRESS PERIOD    3


 HEAD WILL BE SAVED ON UNIT   30 AT END OF TIME STEP    1, STRESS PERIOD    3
1
  VOLUMETRIC BUDGET FOR ENTIRE MODEL AT END OF TIME STEP    1, STRESS PERIOD   3
  ------------------------------------------------------------------------------

     CUMULATIVE VOLUMES      L**3       RATES FOR THIS TIME STEP      L**3/T
     ------------------                 ------------------------

           IN:                                      IN:
           ---                                      ---
             STORAGE =           0.0000               STORAGE =           0.0000
       CONSTANT HEAD =           0.0000         CONSTANT HEAD =           0.0000
               WELLS =       1.0498E-05                 WELLS =       2.4000E-04

            TOTAL IN =       1.0498E-05              TOTAL IN =       2.4000E-04

          OUT:                                     OUT:
          ----                                     ----
             STORAGE =           0.0000               STORAGE =           0.0000
       CONSTANT HEAD =       1.0498E-05         CONSTANT HEAD =       2.4000E-04
               WELLS =           0.0000                 WELLS =           0.0000

           TOTAL OUT =       1.0498E-05             TOTAL OUT =       2.4000E-04

            IN - OUT =      -9.0949E-13              IN - OUT =      -1.4552E-11

 PERCENT DISCREPANCY =           0.00     PERCENT DISCREPANCY =           0.00






         TIME SUMMARY AT END OF TIME STEP    1 IN STRESS PERIOD    3
                    SECONDS     MINUTES      HOURS       DAYS        YEARS
                    -----------------------------------------------------------
   TIME STEP LENGTH  1259.7      20.995     0.34992     1.45800E-02 3.99179E-05
 STRESS PERIOD TIME  1259.7      20.995     0.34992     1.45800E-02 3.99179E-05
         TOTAL TIME  3779.1      62.986      1.0498     4.37400E-02 1.19754E-04
1
1
                            STRESS PERIOD NO.    4, LENGTH =  0.1458000E-01
                            -----------------------------------------------

                              NUMBER OF TIME STEPS =     1

                               MULTIPLIER FOR DELT =     1.000

                            INITIAL TIME STEP SIZE =  0.1458000E-01

 WELL NO.  LAYER   ROW   COL   STRESS RATE         
 --------------------------------------------------
      1      1      1      1      0.2400E-03

      1 WELL 
 
 SOLVING FOR HEAD 

 OUTPUT CONTROL FOR STRESS PERIOD    4   TIME STEP    1
    SAVE HEAD FOR ALL LAYERS
    SAVE BUDGET
 UBDSV1 SAVING "         STORAGE" ON UNIT  31 AT TIME STEP  1, STRESS PERIOD   4
 UBDSV2 SAVING "   CONSTANT HEAD" ON UNIT  31 AT TIME STEP  1, STRESS PERIOD   4
 UBDSV1 SAVING "FLOW RIGHT FACE " ON UNIT  31 AT TIME STEP  1, STRESS PERIOD   4
 UBDSV4 SAVING "           WELLS" ON UNIT  31 AT TIME STEP  1, STRESS PERIOD   4

 SAVING SATURATED THICKNESS AND FLOW TERMS ON UNIT  333 FOR MT3DMS
 BY THE LINK-MT3DMS PACKAGE V7 AT TIME STEP    1, STRESS PERIOD    4


 HEAD WILL BE SAVED ON UNIT   30 AT END OF TIME STEP    1, STRESS PERIOD    4
1
  VOLUMETRIC BUDGET FOR ENTIRE MODEL AT END OF TIME STEP    1, STRESS PERIOD   4
  ------------------------------------------------------------------------------

     CUMULATIVE VOLUMES      L**3       RATES FOR THIS TIME STEP      L**3/T
     ------------------                 ------------------------

           IN:                                      IN:
           ---                                      ---
             STORAGE =           0.0000               STORAGE =           0.0000
       CONSTANT HEAD =           0.0000         CONSTANT HEAD =           0.0000
               WELLS =       1.3997E-05                 WELLS =       2.4000E-04

            TOTAL IN =       1.3997E-05              TOTAL IN =       2.4000E-04

          OUT:                                     OUT:
          ----                                     ----
             STORAGE =           0.0000               STORAGE =           0.0000
       CONSTANT HEAD =       1.3997E-05         CONSTANT HEAD =       2.4000E-04
               WELLS =           0.0000                 WELLS =           0.0000

           TOTAL OUT =       1.3997E-05             TOTAL OUT =       2.4000E-04

            IN - OUT =      -9.0949E-13              IN - OUT =      -1.4552E-11

 PERCENT DISCREPANCY =           0.00     PERCENT DISCREPANCY =           0.00






         TIME SUMMARY AT END OF TIME STEP    1 IN STRESS PERIOD    4
                    SECONDS     MINUTES      HOURS       DAYS        YEARS
                    -----------------------------------------------------------
   TIME STEP LENGTH  1259.7      20.995     0.34992     1.45800E-02 3.99179E-05
 STRESS PERIOD TIME  1259.7      20.995     0.34992     1.45800E-02 3.99179E-05
         TOTAL TIME  5038.8      83.981      1.3997     5.83200E-02 1.59671E-04
1
1
                            STRESS PERIOD NO.    5, LENGTH =  0.1458000E-01
                            -----------------------------------------------

                              NUMBER OF TIME STEPS =     1

                               MULTIPLIER FOR DELT =     1.000

                            INITIAL TIME STEP SIZE =  0.1458000E-01

 WELL NO.  LAYER   ROW   COL   STRESS RATE         
 --------------------------------------------------
      1      1      1      1      0.2400E-03

      1 WELL 
 
 SOLVING FOR HEAD 

 OUTPUT CONTROL FOR STRESS PERIOD    5   TIME STEP    1
    SAVE HEAD FOR ALL LAYERS
    SAVE BUDGET
 UBDSV1 SAVING "         STORAGE" ON UNIT  31 AT TIME STEP  1, STRESS PERIOD   5
 UBDSV2 SAVING "   CONSTANT HEAD" ON UNIT  31 AT TIME STEP  1, STRESS PERIOD   5
 UBDSV1 SAVING "FLOW RIGHT FACE " ON UNIT  31 AT TIME STEP  1, STRESS PERIOD   5
 UBDSV4 SAVING "           WELLS" ON UNIT  31 AT TIME STEP  1, STRESS PERIOD   5

 SAVING SATURATED THICKNESS AND FLOW TERMS ON UNIT  333 FOR MT3DMS
 BY THE LINK-MT3DMS PACKAGE V7 AT TIME STEP    1, STRESS PERIOD    5


 HEAD WILL BE SAVED ON UNIT   30 AT END OF TIME STEP    1, STRESS PERIOD    5
1
  VOLUMETRIC BUDGET FOR ENTIRE MODEL AT END OF TIME STEP    1, STRESS PERIOD   5
  ------------------------------------------------------------------------------

     CUMULATIVE VOLUMES      L**3       RATES FOR THIS TIME STEP      L**3/T
     ------------------                 ------------------------

           IN:                                      IN:
           ---                                      ---
             STORAGE =           0.0000               STORAGE =           0.0000
       CONSTANT HEAD =           0.0000         CONSTANT HEAD =           0.0000
               WELLS =       1.7496E-05                 WELLS =       2.4000E-04

            TOTAL IN =       1.7496E-05              TOTAL IN =       2.4000E-04

          OUT:                                     OUT:
          ----                                     ----
             STORAGE =           0.0000               STORAGE =           0.0000
       CONSTANT HEAD =       1.7496E-05         CONSTANT HEAD =       2.4000E-04
               WELLS =           0.0000                 WELLS =           0.0000

           TOTAL OUT =       1.7496E-05             TOTAL OUT =       2.4000E-04

            IN - OUT =           0.0000              IN - OUT =      -1.4552E-11

 PERCENT DISCREPANCY =           0.00     PERCENT DISCREPANCY =           0.00






         TIME SUMMARY AT END OF TIME STEP    1 IN STRESS PERIOD    5
                    SECONDS     MINUTES      HOURS       DAYS        YEARS
                    -----------------------------------------------------------
   TIME STEP LENGTH  1259.7      20.995     0.34992     1.45800E-02 3.99179E-05
 STRESS PERIOD TIME  1259.7      20.995     0.34992     1.45800E-02 3.99179E-05
         TOTAL TIME  6298.6      104.98      1.7496     7.29000E-02 1.99589E-04
1
1
                            STRESS PERIOD NO.    6, LENGTH =  0.1458000E-01
                            -----------------------------------------------

                              NUMBER OF TIME STEPS =     1

                               MULTIPLIER FOR DELT =     1.000

                            INITIAL TIME STEP SIZE =  0.1458000E-01

 WELL NO.  LAYER   ROW   COL   STRESS RATE         
 --------------------------------------------------
      1      1      1      1      0.2400E-03

      1 WELL 
 
 SOLVING FOR HEAD 

 OUTPUT CONTROL FOR STRESS PERIOD    6   TIME STEP    1
    SAVE HEAD FOR ALL LAYERS
    SAVE BUDGET
 UBDSV1 SAVING "         STORAGE" ON UNIT  31 AT TIME STEP  1, STRESS PERIOD   6
 UBDSV2 SAVING "   CONSTANT HEAD" ON UNIT  31 AT TIME STEP  1, STRESS PERIOD   6
 UBDSV1 SAVING "FLOW RIGHT FACE " ON UNIT  31 AT TIME STEP  1, STRESS PERIOD   6
 UBDSV4 SAVING "           WELLS" ON UNIT  31 AT TIME STEP  1, STRESS PERIOD   6

 SAVING SATURATED THICKNESS AND FLOW TERMS ON UNIT  333 FOR MT3DMS
 BY THE LINK-MT3DMS PACKAGE V7 AT TIME STEP    1, STRESS PERIOD    6


 HEAD WILL BE SAVED ON UNIT   30 AT END OF TIME STEP    1, STRESS PERIOD    6
1
  VOLUMETRIC BUDGET FOR ENTIRE MODEL AT END OF TIME STEP    1, STRESS PERIOD   6
  ------------------------------------------------------------------------------

     CUMULATIVE VOLUMES      L**3       RATES FOR THIS TIME STEP      L**3/T
     ------------------                 ------------------------

           IN:                                      IN:
           ---                                      ---
             STORAGE =           0.0000               STORAGE =           0.0000
       CONSTANT HEAD =           0.0000         CONSTANT HEAD =           0.0000
               WELLS =       2.0995E-05                 WELLS =       2.4000E-04

            TOTAL IN =       2.0995E-05              TOTAL IN =       2.4000E-04

          OUT:                                     OUT:
          ----                                     ----
             STORAGE =           0.0000               STORAGE =           0.0000
       CONSTANT HEAD =       2.0995E-05         CONSTANT HEAD =       2.4000E-04
               WELLS =           0.0000                 WELLS =           0.0000

           TOTAL OUT =       2.0995E-05             TOTAL OUT =       2.4000E-04

            IN - OUT =           0.0000              IN - OUT =      -1.4552E-11

 PERCENT DISCREPANCY =           0.00     PERCENT DISCREPANCY =           0.00






         TIME SUMMARY AT END OF TIME STEP    1 IN STRESS PERIOD    6
                    SECONDS     MINUTES      HOURS       DAYS        YEARS
                    -----------------------------------------------------------
   TIME STEP LENGTH  1259.7      20.995     0.34992     1.45800E-02 3.99179E-05
 STRESS PERIOD TIME  1259.7      20.995     0.34992     1.45800E-02 3.99179E-05
         TOTAL TIME  7558.3      125.97      2.0995     8.74800E-02 2.39507E-04
1
1
                            STRESS PERIOD NO.    7, LENGTH =  0.1458000E-01
                            -----------------------------------------------

                              NUMBER OF TIME STEPS =     1

                               MULTIPLIER FOR DELT =     1.000

                            INITIAL TIME STEP SIZE =  0.1458000E-01

 WELL NO.  LAYER   ROW   COL   STRESS RATE         
 --------------------------------------------------
      1      1      1      1      0.2400E-03

      1 WELL 
 
 SOLVING FOR HEAD 

 OUTPUT CONTROL FOR STRESS PERIOD    7   TIME STEP    1
    SAVE HEAD FOR ALL LAYERS
    SAVE BUDGET
 UBDSV1 SAVING "         STORAGE" ON UNIT  31 AT TIME STEP  1, STRESS PERIOD   7
 UBDSV2 SAVING "   CONSTANT HEAD" ON UNIT  31 AT TIME STEP  1, STRESS PERIOD   7
 UBDSV1 SAVING "FLOW RIGHT FACE " ON UNIT  31 AT TIME STEP  1, STRESS PERIOD   7
 UBDSV4 SAVING "           WELLS" ON UNIT  31 AT TIME STEP  1, STRESS PERIOD   7

 SAVING SATURATED THICKNESS AND FLOW TERMS ON UNIT  333 FOR MT3DMS
 BY THE LINK-MT3DMS PACKAGE V7 AT TIME STEP    1, STRESS PERIOD    7


 HEAD WILL BE SAVED ON UNIT   30 AT END OF TIME STEP    1, STRESS PERIOD    7
1
  VOLUMETRIC BUDGET FOR ENTIRE MODEL AT END OF TIME STEP    1, STRESS PERIOD   7
  ------------------------------------------------------------------------------

     CUMULATIVE VOLUMES      L**3       RATES FOR THIS TIME STEP      L**3/T
     ------------------                 ------------------------

           IN:                                      IN:
           ---                                      ---
             STORAGE =           0.0000               STORAGE =           0.0000
       CONSTANT HEAD =           0.0000         CONSTANT HEAD =           0.0000
               WELLS =       2.4494E-05                 WELLS =       2.4000E-04

            TOTAL IN =       2.4494E-05              TOTAL IN =       2.4000E-04

          OUT:                                     OUT:
          ----                                     ----
             STORAGE =           0.0000               STORAGE =           0.0000
       CONSTANT HEAD =       2.4494E-05         CONSTANT HEAD =       2.4000E-04
               WELLS =           0.0000                 WELLS =           0.0000

           TOTAL OUT =       2.4494E-05             TOTAL OUT =       2.4000E-04

            IN - OUT =           0.0000              IN - OUT =      -1.4552E-11

 PERCENT DISCREPANCY =           0.00     PERCENT DISCREPANCY =           0.00






         TIME SUMMARY AT END OF TIME STEP    1 IN STRESS PERIOD    7
                    SECONDS     MINUTES      HOURS       DAYS        YEARS
                    -----------------------------------------------------------
   TIME STEP LENGTH  1259.7      20.995     0.34992     1.45800E-02 3.99179E-05
 STRESS PERIOD TIME  1259.7      20.995     0.34992     1.45800E-02 3.99179E-05
         TOTAL TIME  8818.0      146.97      2.4494     0.10206     2.79425E-04
1
1
                            STRESS PERIOD NO.    8, LENGTH =  0.1458000E-01
                            -----------------------------------------------

                              NUMBER OF TIME STEPS =     1

                               MULTIPLIER FOR DELT =     1.000

                            INITIAL TIME STEP SIZE =  0.1458000E-01

 WELL NO.  LAYER   ROW   COL   STRESS RATE         
 --------------------------------------------------
      1      1      1      1      0.2400E-03

      1 WELL 
 
 SOLVING FOR HEAD 

 OUTPUT CONTROL FOR STRESS PERIOD    8   TIME STEP    1
    SAVE HEAD FOR ALL LAYERS
    SAVE BUDGET
 UBDSV1 SAVING "         STORAGE" ON UNIT  31 AT TIME STEP  1, STRESS PERIOD   8
 UBDSV2 SAVING "   CONSTANT HEAD" ON UNIT  31 AT TIME STEP  1, STRESS PERIOD   8
 UBDSV1 SAVING "FLOW RIGHT FACE " ON UNIT  31 AT TIME STEP  1, STRESS PERIOD   8
 UBDSV4 SAVING "           WELLS" ON UNIT  31 AT TIME STEP  1, STRESS PERIOD   8

 SAVING SATURATED THICKNESS AND FLOW TERMS ON UNIT  333 FOR MT3DMS
 BY THE LINK-MT3DMS PACKAGE V7 AT TIME STEP    1, STRESS PERIOD    8


 HEAD WILL BE SAVED ON UNIT   30 AT END OF TIME STEP    1, STRESS PERIOD    8
1
  VOLUMETRIC BUDGET FOR ENTIRE MODEL AT END OF TIME STEP    1, STRESS PERIOD   8
  ------------------------------------------------------------------------------

     CUMULATIVE VOLUMES      L**3       RATES FOR THIS TIME STEP      L**3/T
     ------------------                 ------------------------

           IN:                                      IN:
           ---                                      ---
             STORAGE =           0.0000               STORAGE =           0.0000
       CONSTANT HEAD =           0.0000         CONSTANT HEAD =           0.0000
               WELLS =       2.7994E-05                 WELLS =       2.4000E-04

            TOTAL IN =       2.7994E-05              TOTAL IN =       2.4000E-04

          OUT:                                     OUT:
          ----                                     ----
             STORAGE =           0.0000               STORAGE =           0.0000
       CONSTANT HEAD =       2.7994E-05         CONSTANT HEAD =       2.4000E-04
               WELLS =           0.0000                 WELLS =           0.0000

           TOTAL OUT =       2.7994E-05             TOTAL OUT =       2.4000E-04

            IN - OUT =           0.0000              IN - OUT =      -1.4552E-11

 PERCENT DISCREPANCY =           0.00     PERCENT DISCREPANCY =           0.00






         TIME SUMMARY AT END OF TIME STEP    1 IN STRESS PERIOD    8
                    SECONDS     MINUTES      HOURS       DAYS        YEARS
                    -----------------------------------------------------------
   TIME STEP LENGTH  1259.7      20.995     0.34992     1.45800E-02 3.99179E-05
 STRESS PERIOD TIME  1259.7      20.995     0.34992     1.45800E-02 3.99179E-05
         TOTAL TIME  10078.      167.96      2.7994     0.11664     3.19343E-04
1
1
                            STRESS PERIOD NO.    9, LENGTH =  0.1458000E-01
                            -----------------------------------------------

                              NUMBER OF TIME STEPS =     1

                               MULTIPLIER FOR DELT =     1.000

                            INITIAL TIME STEP SIZE =  0.1458000E-01

 WELL NO.  LAYER   ROW   COL   STRESS RATE         
 --------------------------------------------------
      1      1      1      1      0.2400E-03

      1 WELL 
 
 SOLVING FOR HEAD 

 OUTPUT CONTROL FOR STRESS PERIOD    9   TIME STEP    1
    SAVE HEAD FOR ALL LAYERS
    SAVE BUDGET
 UBDSV1 SAVING "         STORAGE" ON UNIT  31 AT TIME STEP  1, STRESS PERIOD   9
 UBDSV2 SAVING "   CONSTANT HEAD" ON UNIT  31 AT TIME STEP  1, STRESS PERIOD   9
 UBDSV1 SAVING "FLOW RIGHT FACE " ON UNIT  31 AT TIME STEP  1, STRESS PERIOD   9
 UBDSV4 SAVING "           WELLS" ON UNIT  31 AT TIME STEP  1, STRESS PERIOD   9

 SAVING SATURATED THICKNESS AND FLOW TERMS ON UNIT  333 FOR MT3DMS
 BY THE LINK-MT3DMS PACKAGE V7 AT TIME STEP    1, STRESS PERIOD    9


 HEAD WILL BE SAVED ON UNIT   30 AT END OF TIME STEP    1, STRESS PERIOD    9
1
  VOLUMETRIC BUDGET FOR ENTIRE MODEL AT END OF TIME STEP    1, STRESS PERIOD   9
  ------------------------------------------------------------------------------

     CUMULATIVE VOLUMES      L**3       RATES FOR THIS TIME STEP      L**3/T
     ------------------                 ------------------------

           IN:                                      IN:
           ---                                      ---
             STORAGE =           0.0000               STORAGE =           0.0000
       CONSTANT HEAD =           0.0000         CONSTANT HEAD =           0.0000
               WELLS =       3.1493E-05                 WELLS =       2.4000E-04

            TOTAL IN =       3.1493E-05              TOTAL IN =       2.4000E-04

          OUT:                                     OUT:
          ----                                     ----
             STORAGE =           0.0000               STORAGE =           0.0000
       CONSTANT HEAD =       3.1493E-05         CONSTANT HEAD =       2.4000E-04
               WELLS =           0.0000                 WELLS =           0.0000

           TOTAL OUT =       3.1493E-05             TOTAL OUT =       2.4000E-04

            IN - OUT =           0.0000              IN - OUT =      -1.4552E-11

 PERCENT DISCREPANCY =           0.00     PERCENT DISCREPANCY =           0.00






         TIME SUMMARY AT END OF TIME STEP    1 IN STRESS PERIOD    9
                    SECONDS     MINUTES      HOURS       DAYS        YEARS
                    -----------------------------------------------------------
   TIME STEP LENGTH  1259.7      20.995     0.34992     1.45800E-02 3.99179E-05
 STRESS PERIOD TIME  1259.7      20.995     0.34992     1.45800E-02 3.99179E-05
         TOTAL TIME  11337.      188.96      3.1493     0.13122     3.59261E-04
1
1
                            STRESS PERIOD NO.   10, LENGTH =  0.1458000E-01
                            -----------------------------------------------

                              NUMBER OF TIME STEPS =     1

                               MULTIPLIER FOR DELT =     1.000

                            INITIAL TIME STEP SIZE =  0.1458000E-01

 WELL NO.  LAYER   ROW   COL   STRESS RATE         
 --------------------------------------------------
      1      1      1      1      0.2400E-03

      1 WELL 
 
 SOLVING FOR HEAD 

 OUTPUT CONTROL FOR STRESS PERIOD   10   TIME STEP    1
    SAVE HEAD FOR ALL LAYERS
    SAVE BUDGET
 UBDSV1 SAVING "         STORAGE" ON UNIT  31 AT TIME STEP  1, STRESS PERIOD  10
 UBDSV2 SAVING "   CONSTANT HEAD" ON UNIT  31 AT TIME STEP  1, STRESS PERIOD  10
 UBDSV1 SAVING "FLOW RIGHT FACE " ON UNIT  31 AT TIME STEP  1, STRESS PERIOD  10
 UBDSV4 SAVING "           WELLS" ON UNIT  31 AT TIME STEP  1, STRESS PERIOD  10

 SAVING SATURATED THICKNESS AND FLOW TERMS ON UNIT  333 FOR MT3DMS
 BY THE LINK-MT3DMS PACKAGE V7 AT TIME STEP    1, STRESS PERIOD   10


 HEAD WILL BE SAVED ON UNIT   30 AT END OF TIME STEP    1, STRESS PERIOD   10
1
  VOLUMETRIC BUDGET FOR ENTIRE MODEL AT END OF TIME STEP    1, STRESS PERIOD  10
  ------------------------------------------------------------------------------

     CUMULATIVE VOLUMES      L**3       RATES FOR THIS TIME STEP      L**3/T
     ------------------                 ------------------------

           IN:                                      IN:
           ---                                      ---
             STORAGE =           0.0000               STORAGE =           0.0000
       CONSTANT HEAD =           0.0000         CONSTANT HEAD =           0.0000
               WELLS =       3.4992E-05                 WELLS =       2.4000E-04

            TOTAL IN =       3.4992E-05              TOTAL IN =       2.4000E-04

          OUT:                                     OUT:
          ----                                     ----
             STORAGE =           0.0000               STORAGE =           0.0000
       CONSTANT HEAD =       3.4992E-05         CONSTANT HEAD =       2.4000E-04
               WELLS =           0.0000                 WELLS =           0.0000

           TOTAL OUT =       3.4992E-05             TOTAL OUT =       2.4000E-04

            IN - OUT =           0.0000              IN - OUT =      -1.4552E-11

 PERCENT DISCREPANCY =           0.00     PERCENT DISCREPANCY =           0.00






         TIME SUMMARY AT END OF TIME STEP    1 IN STRESS PERIOD   10
                    SECONDS     MINUTES      HOURS       DAYS        YEARS
                    -----------------------------------------------------------
   TIME STEP LENGTH  1259.7      20.995     0.34992     1.45800E-02 3.99179E-05
 STRESS PERIOD TIME  1259.7      20.995     0.34992     1.45800E-02 3.99179E-05
         TOTAL TIME  12597.      209.95      3.4992     0.14580     3.99179E-04
1
1
                            STRESS PERIOD NO.   11, LENGTH =  0.1458000E-01
                            -----------------------------------------------

                              NUMBER OF TIME STEPS =     1

                               MULTIPLIER FOR DELT =     1.000

                            INITIAL TIME STEP SIZE =  0.1458000E-01

 WELL NO.  LAYER   ROW   COL   STRESS RATE         
 --------------------------------------------------
      1      1      1      1      0.2400E-03

      1 WELL 
 
 SOLVING FOR HEAD 

 OUTPUT CONTROL FOR STRESS PERIOD   11   TIME STEP    1
    SAVE HEAD FOR ALL LAYERS
    SAVE BUDGET
 UBDSV1 SAVING "         STORAGE" ON UNIT  31 AT TIME STEP  1, STRESS PERIOD  11
 UBDSV2 SAVING "   CONSTANT HEAD" ON UNIT  31 AT TIME STEP  1, STRESS PERIOD  11
 UBDSV1 SAVING "FLOW RIGHT FACE " ON UNIT  31 AT TIME STEP  1, STRESS PERIOD  11
 UBDSV4 SAVING "           WELLS" ON UNIT  31 AT TIME STEP  1, STRESS PERIOD  11

 SAVING SATURATED THICKNESS AND FLOW TERMS ON UNIT  333 FOR MT3DMS
 BY THE LINK-MT3DMS PACKAGE V7 AT TIME STEP    1, STRESS PERIOD   11


 HEAD WILL BE SAVED ON UNIT   30 AT END OF TIME STEP    1, STRESS PERIOD   11
1
  VOLUMETRIC BUDGET FOR ENTIRE MODEL AT END OF TIME STEP    1, STRESS PERIOD  11
  ------------------------------------------------------------------------------

     CUMULATIVE VOLUMES      L**3       RATES FOR THIS TIME STEP      L**3/T
     ------------------                 ------------------------

           IN:                                      IN:
           ---                                      ---
             STORAGE =           0.0000               STORAGE =           0.0000
       CONSTANT HEAD =           0.0000         CONSTANT HEAD =           0.0000
               WELLS =       3.8491E-05                 WELLS =       2.4000E-04

            TOTAL IN =       3.8491E-05              TOTAL IN =       2.4000E-04

          OUT:                                     OUT:
          ----                                     ----
             STORAGE =           0.0000               STORAGE =           0.0000
       CONSTANT HEAD =       3.8491E-05         CONSTANT HEAD =       2.4000E-04
               WELLS =           0.0000                 WELLS =           0.0000

           TOTAL OUT =       3.8491E-05             TOTAL OUT =       2.4000E-04

            IN - OUT =           0.0000              IN - OUT =      -1.4552E-11

 PERCENT DISCREPANCY =           0.00     PERCENT DISCREPANCY =           0.00






         TIME SUMMARY AT END OF TIME STEP    1 IN STRESS PERIOD   11
                    SECONDS     MINUTES      HOURS       DAYS        YEARS
                    -----------------------------------------------------------
   TIME STEP LENGTH  1259.7      20.995     0.34992     1.45800E-02 3.99179E-05
 STRESS PERIOD TIME  1259.7      20.995     0.34992     1.45800E-02 3.99179E-05
         TOTAL TIME  13857.      230.95      3.8491     0.16038     4.39096E-04
1
1
                            STRESS PERIOD NO.   12, LENGTH =  0.1458000E-01
                            -----------------------------------------------

                              NUMBER OF TIME STEPS =     1

                               MULTIPLIER FOR DELT =     1.000

                            INITIAL TIME STEP SIZE =  0.1458000E-01

 WELL NO.  LAYER   ROW   COL   STRESS RATE         
 --------------------------------------------------
      1      1      1      1      0.2400E-03

      1 WELL 
 
 SOLVING FOR HEAD 

 OUTPUT CONTROL FOR STRESS PERIOD   12   TIME STEP    1
    SAVE HEAD FOR ALL LAYERS
    SAVE BUDGET
 UBDSV1 SAVING "         STORAGE" ON UNIT  31 AT TIME STEP  1, STRESS PERIOD  12
 UBDSV2 SAVING "   CONSTANT HEAD" ON UNIT  31 AT TIME STEP  1, STRESS PERIOD  12
 UBDSV1 SAVING "FLOW RIGHT FACE " ON UNIT  31 AT TIME STEP  1, STRESS PERIOD  12
 UBDSV4 SAVING "           WELLS" ON UNIT  31 AT TIME STEP  1, STRESS PERIOD  12

 SAVING SATURATED THICKNESS AND FLOW TERMS ON UNIT  333 FOR MT3DMS
 BY THE LINK-MT3DMS PACKAGE V7 AT TIME STEP    1, STRESS PERIOD   12


 HEAD WILL BE SAVED ON UNIT   30 AT END OF TIME STEP    1, STRESS PERIOD   12
1
  VOLUMETRIC BUDGET FOR ENTIRE MODEL AT END OF TIME STEP    1, STRESS PERIOD  12
  ------------------------------------------------------------------------------

     CUMULATIVE VOLUMES      L**3       RATES FOR THIS TIME STEP      L**3/T
     ------------------                 ------------------------

           IN:                                      IN:
           ---                                      ---
             STORAGE =           0.0000               STORAGE =           0.0000
       CONSTANT HEAD =           0.0000         CONSTANT HEAD =           0.0000
               WELLS =       4.1990E-05                 WELLS =       2.4000E-04

            TOTAL IN =       4.1990E-05              TOTAL IN =       2.4000E-04

          OUT:                                     OUT:
          ----                                     ----
             STORAGE =           0.0000               STORAGE =           0.0000
       CONSTANT HEAD =       4.1990E-05         CONSTANT HEAD =       2.4000E-04
               WELLS =           0.0000                 WELLS =           0.0000

           TOTAL OUT =       4.1990E-05             TOTAL OUT =       2.4000E-04

            IN - OUT =           0.0000              IN - OUT =      -1.4552E-11

 PERCENT DISCREPANCY =           0.00     PERCENT DISCREPANCY =           0.00






         TIME SUMMARY AT END OF TIME STEP    1 IN STRESS PERIOD   12
                    SECONDS     MINUTES      HOURS       DAYS        YEARS
                    -----------------------------------------------------------
   TIME STEP LENGTH  1259.7      20.995     0.34992     1.45800E-02 3.99179E-05
 STRESS PERIOD TIME  1259.7      20.995     0.34992     1.45800E-02 3.99179E-05
         TOTAL TIME  15117.      251.94      4.1990     0.17496     4.79014E-04
1
1
                            STRESS PERIOD NO.   13, LENGTH =  0.1458000E-01
                            -----------------------------------------------

                              NUMBER OF TIME STEPS =     1

                               MULTIPLIER FOR DELT =     1.000

                            INITIAL TIME STEP SIZE =  0.1458000E-01

 WELL NO.  LAYER   ROW   COL   STRESS RATE         
 --------------------------------------------------
      1      1      1      1      0.2400E-03

      1 WELL 
 
 SOLVING FOR HEAD 

 OUTPUT CONTROL FOR STRESS PERIOD   13   TIME STEP    1
    SAVE HEAD FOR ALL LAYERS
    SAVE BUDGET
 UBDSV1 SAVING "         STORAGE" ON UNIT  31 AT TIME STEP  1, STRESS PERIOD  13
 UBDSV2 SAVING "   CONSTANT HEAD" ON UNIT  31 AT TIME STEP  1, STRESS PERIOD  13
 UBDSV1 SAVING "FLOW RIGHT FACE " ON UNIT  31 AT TIME STEP  1, STRESS PERIOD  13
 UBDSV4 SAVING "           WELLS" ON UNIT  31 AT TIME STEP  1, STRESS PERIOD  13

 SAVING SATURATED THICKNESS AND FLOW TERMS ON UNIT  333 FOR MT3DMS
 BY THE LINK-MT3DMS PACKAGE V7 AT TIME STEP    1, STRESS PERIOD   13


 HEAD WILL BE SAVED ON UNIT   30 AT END OF TIME STEP    1, STRESS PERIOD   13
1
  VOLUMETRIC BUDGET FOR ENTIRE MODEL AT END OF TIME STEP    1, STRESS PERIOD  13
  ------------------------------------------------------------------------------

     CUMULATIVE VOLUMES      L**3       RATES FOR THIS TIME STEP      L**3/T
     ------------------                 ------------------------

           IN:                                      IN:
           ---                                      ---
             STORAGE =           0.0000               STORAGE =           0.0000
       CONSTANT HEAD =           0.0000         CONSTANT HEAD =           0.0000
               WELLS =       4.5490E-05                 WELLS =       2.4000E-04

            TOTAL IN =       4.5490E-05              TOTAL IN =       2.4000E-04

          OUT:                                     OUT:
          ----                                     ----
             STORAGE =           0.0000               STORAGE =           0.0000
       CONSTANT HEAD =       4.5490E-05         CONSTANT HEAD =       2.4000E-04
               WELLS =           0.0000                 WELLS =           0.0000

           TOTAL OUT =       4.5490E-05             TOTAL OUT =       2.4000E-04

            IN - OUT =           0.0000              IN - OUT =      -1.4552E-11

 PERCENT DISCREPANCY =           0.00     PERCENT DISCREPANCY =           0.00






         TIME SUMMARY AT END OF TIME STEP    1 IN STRESS PERIOD   13
                    SECONDS     MINUTES      HOURS       DAYS        YEARS
                    -----------------------------------------------------------
   TIME STEP LENGTH  1259.7      20.995     0.34992     1.45800E-02 3.99179E-05
 STRESS PERIOD TIME  1259.7      20.995     0.34992     1.45800E-02 3.99179E-05
         TOTAL TIME  16376.      272.94      4.5490     0.18954     5.18932E-04
1
1
                            STRESS PERIOD NO.   14, LENGTH =  0.1458000E-01
                            -----------------------------------------------

                              NUMBER OF TIME STEPS =     1

                               MULTIPLIER FOR DELT =     1.000

                            INITIAL TIME STEP SIZE =  0.1458000E-01

 WELL NO.  LAYER   ROW   COL   STRESS RATE         
 --------------------------------------------------
      1      1      1      1      0.2400E-03

      1 WELL 
 
 SOLVING FOR HEAD 

 OUTPUT CONTROL FOR STRESS PERIOD   14   TIME STEP    1
    SAVE HEAD FOR ALL LAYERS
    SAVE BUDGET
 UBDSV1 SAVING "         STORAGE" ON UNIT  31 AT TIME STEP  1, STRESS PERIOD  14
 UBDSV2 SAVING "   CONSTANT HEAD" ON UNIT  31 AT TIME STEP  1, STRESS PERIOD  14
 UBDSV1 SAVING "FLOW RIGHT FACE " ON UNIT  31 AT TIME STEP  1, STRESS PERIOD  14
 UBDSV4 SAVING "           WELLS" ON UNIT  31 AT TIME STEP  1, STRESS PERIOD  14

 SAVING SATURATED THICKNESS AND FLOW TERMS ON UNIT  333 FOR MT3DMS
 BY THE LINK-MT3DMS PACKAGE V7 AT TIME STEP    1, STRESS PERIOD   14


 HEAD WILL BE SAVED ON UNIT   30 AT END OF TIME STEP    1, STRESS PERIOD   14
1
  VOLUMETRIC BUDGET FOR ENTIRE MODEL AT END OF TIME STEP    1, STRESS PERIOD  14
  ------------------------------------------------------------------------------

     CUMULATIVE VOLUMES      L**3       RATES FOR THIS TIME STEP      L**3/T
     ------------------                 ------------------------

           IN:                                      IN:
           ---                                      ---
             STORAGE =           0.0000               STORAGE =           0.0000
       CONSTANT HEAD =           0.0000         CONSTANT HEAD =           0.0000
               WELLS =       4.8989E-05                 WELLS =       2.4000E-04

            TOTAL IN =       4.8989E-05              TOTAL IN =       2.4000E-04

          OUT:                                     OUT:
          ----                                     ----
             STORAGE =           0.0000               STORAGE =           0.0000
       CONSTANT HEAD =       4.8989E-05         CONSTANT HEAD =       2.4000E-04
               WELLS =           0.0000                 WELLS =           0.0000

           TOTAL OUT =       4.8989E-05             TOTAL OUT =       2.4000E-04

            IN - OUT =           0.0000              IN - OUT =      -1.4552E-11

 PERCENT DISCREPANCY =           0.00     PERCENT DISCREPANCY =           0.00






         TIME SUMMARY AT END OF TIME STEP    1 IN STRESS PERIOD   14
                    SECONDS     MINUTES      HOURS       DAYS        YEARS
                    -----------------------------------------------------------
   TIME STEP LENGTH  1259.7      20.995     0.34992     1.45800E-02 3.99179E-05
 STRESS PERIOD TIME  1259.7      20.995     0.34992     1.45800E-02 3.99179E-05
         TOTAL TIME  17636.      293.93      4.8989     0.20412     5.58850E-04
1
1
                            STRESS PERIOD NO.   15, LENGTH =  0.1458000E-01
                            -----------------------------------------------

                              NUMBER OF TIME STEPS =     1

                               MULTIPLIER FOR DELT =     1.000

                            INITIAL TIME STEP SIZE =  0.1458000E-01

 WELL NO.  LAYER   ROW   COL   STRESS RATE         
 --------------------------------------------------
      1      1      1      1      0.2400E-03

      1 WELL 
 
 SOLVING FOR HEAD 

 OUTPUT CONTROL FOR STRESS PERIOD   15   TIME STEP    1
    SAVE HEAD FOR ALL LAYERS
    SAVE BUDGET
 UBDSV1 SAVING "         STORAGE" ON UNIT  31 AT TIME STEP  1, STRESS PERIOD  15
 UBDSV2 SAVING "   CONSTANT HEAD" ON UNIT  31 AT TIME STEP  1, STRESS PERIOD  15
 UBDSV1 SAVING "FLOW RIGHT FACE " ON UNIT  31 AT TIME STEP  1, STRESS PERIOD  15
 UBDSV4 SAVING "           WELLS" ON UNIT  31 AT TIME STEP  1, STRESS PERIOD  15

 SAVING SATURATED THICKNESS AND FLOW TERMS ON UNIT  333 FOR MT3DMS
 BY THE LINK-MT3DMS PACKAGE V7 AT TIME STEP    1, STRESS PERIOD   15


 HEAD WILL BE SAVED ON UNIT   30 AT END OF TIME STEP    1, STRESS PERIOD   15
1
  VOLUMETRIC BUDGET FOR ENTIRE MODEL AT END OF TIME STEP    1, STRESS PERIOD  15
  ------------------------------------------------------------------------------

     CUMULATIVE VOLUMES      L**3       RATES FOR THIS TIME STEP      L**3/T
     ------------------                 ------------------------

           IN:                                      IN:
           ---                                      ---
             STORAGE =           0.0000               STORAGE =           0.0000
       CONSTANT HEAD =           0.0000         CONSTANT HEAD =           0.0000
               WELLS =       5.2488E-05                 WELLS =       2.4000E-04

            TOTAL IN =       5.2488E-05              TOTAL IN =       2.4000E-04

          OUT:                                     OUT:
          ----                                     ----
             STORAGE =           0.0000               STORAGE =           0.0000
       CONSTANT HEAD =       5.2488E-05         CONSTANT HEAD =       2.4000E-04
               WELLS =           0.0000                 WELLS =           0.0000

           TOTAL OUT =       5.2488E-05             TOTAL OUT =       2.4000E-04

            IN - OUT =           0.0000              IN - OUT =      -1.4552E-11

 PERCENT DISCREPANCY =           0.00     PERCENT DISCREPANCY =           0.00






         TIME SUMMARY AT END OF TIME STEP    1 IN STRESS PERIOD   15
                    SECONDS     MINUTES      HOURS       DAYS        YEARS
                    -----------------------------------------------------------
   TIME STEP LENGTH  1259.7      20.995     0.34992     1.45800E-02 3.99179E-05
 STRESS PERIOD TIME  1259.7      20.995     0.34992     1.45800E-02 3.99179E-05
         TOTAL TIME  18896.      314.93      5.2488     0.21870     5.98768E-04
1
1
                            STRESS PERIOD NO.   16, LENGTH =  0.1458000E-01
                            -----------------------------------------------

                              NUMBER OF TIME STEPS =     1

                               MULTIPLIER FOR DELT =     1.000

                            INITIAL TIME STEP SIZE =  0.1458000E-01

 WELL NO.  LAYER   ROW   COL   STRESS RATE         
 --------------------------------------------------
      1      1      1      1      0.2400E-03

      1 WELL 
 
 SOLVING FOR HEAD 

 OUTPUT CONTROL FOR STRESS PERIOD   16   TIME STEP    1
    SAVE HEAD FOR ALL LAYERS
    SAVE BUDGET
 UBDSV1 SAVING "         STORAGE" ON UNIT  31 AT TIME STEP  1, STRESS PERIOD  16
 UBDSV2 SAVING "   CONSTANT HEAD" ON UNIT  31 AT TIME STEP  1, STRESS PERIOD  16
 UBDSV1 SAVING "FLOW RIGHT FACE " ON UNIT  31 AT TIME STEP  1, STRESS PERIOD  16
 UBDSV4 SAVING "           WELLS" ON UNIT  31 AT TIME STEP  1, STRESS PERIOD  16

 SAVING SATURATED THICKNESS AND FLOW TERMS ON UNIT  333 FOR MT3DMS
 BY THE LINK-MT3DMS PACKAGE V7 AT TIME STEP    1, STRESS PERIOD   16


 HEAD WILL BE SAVED ON UNIT   30 AT END OF TIME STEP    1, STRESS PERIOD   16
1
  VOLUMETRIC BUDGET FOR ENTIRE MODEL AT END OF TIME STEP    1, STRESS PERIOD  16
  ------------------------------------------------------------------------------

     CUMULATIVE VOLUMES      L**3       RATES FOR THIS TIME STEP      L**3/T
     ------------------                 ------------------------

           IN:                                      IN:
           ---                                      ---
             STORAGE =           0.0000               STORAGE =           0.0000
       CONSTANT HEAD =           0.0000         CONSTANT HEAD =           0.0000
               WELLS =       5.5987E-05                 WELLS =       2.4000E-04

            TOTAL IN =       5.5987E-05              TOTAL IN =       2.4000E-04

          OUT:                                     OUT:
          ----                                     ----
             STORAGE =           0.0000               STORAGE =           0.0000
       CONSTANT HEAD =       5.5987E-05         CONSTANT HEAD =       2.4000E-04
               WELLS =           0.0000                 WELLS =           0.0000

           TOTAL OUT =       5.5987E-05             TOTAL OUT =       2.4000E-04

            IN - OUT =           0.0000              IN - OUT =      -1.4552E-11

 PERCENT DISCREPANCY =           0.00     PERCENT DISCREPANCY =           0.00






         TIME SUMMARY AT END OF TIME STEP    1 IN STRESS PERIOD   16
                    SECONDS     MINUTES      HOURS       DAYS        YEARS
                    -----------------------------------------------------------
   TIME STEP LENGTH  1259.7      20.995     0.34992     1.45800E-02 3.99179E-05
 STRESS PERIOD TIME  1259.7      20.995     0.34992     1.45800E-02 3.99179E-05
         TOTAL TIME  20155.      335.92      5.5987     0.23328     6.38686E-04
1
1
                            STRESS PERIOD NO.   17, LENGTH =  0.1458000E-01
                            -----------------------------------------------

                              NUMBER OF TIME STEPS =     1

                               MULTIPLIER FOR DELT =     1.000

                            INITIAL TIME STEP SIZE =  0.1458000E-01

 WELL NO.  LAYER   ROW   COL   STRESS RATE         
 --------------------------------------------------
      1      1      1      1      0.2400E-03

      1 WELL 
 
 SOLVING FOR HEAD 

 OUTPUT CONTROL FOR STRESS PERIOD   17   TIME STEP    1
    SAVE HEAD FOR ALL LAYERS
    SAVE BUDGET
 UBDSV1 SAVING "         STORAGE" ON UNIT  31 AT TIME STEP  1, STRESS PERIOD  17
 UBDSV2 SAVING "   CONSTANT HEAD" ON UNIT  31 AT TIME STEP  1, STRESS PERIOD  17
 UBDSV1 SAVING "FLOW RIGHT FACE " ON UNIT  31 AT TIME STEP  1, STRESS PERIOD  17
 UBDSV4 SAVING "           WELLS" ON UNIT  31 AT TIME STEP  1, STRESS PERIOD  17

 SAVING SATURATED THICKNESS AND FLOW TERMS ON UNIT  333 FOR MT3DMS
 BY THE LINK-MT3DMS PACKAGE V7 AT TIME STEP    1, STRESS PERIOD   17


 HEAD WILL BE SAVED ON UNIT   30 AT END OF TIME STEP    1, STRESS PERIOD   17
1
  VOLUMETRIC BUDGET FOR ENTIRE MODEL AT END OF TIME STEP    1, STRESS PERIOD  17
  ------------------------------------------------------------------------------

     CUMULATIVE VOLUMES      L**3       RATES FOR THIS TIME STEP      L**3/T
     ------------------                 ------------------------

           IN:                                      IN:
           ---                                      ---
             STORAGE =           0.0000               STORAGE =           0.0000
       CONSTANT HEAD =           0.0000         CONSTANT HEAD =           0.0000
               WELLS =       5.9486E-05                 WELLS =       2.4000E-04

            TOTAL IN =       5.9486E-05              TOTAL IN =       2.4000E-04

          OUT:                                     OUT:
          ----                                     ----
             STORAGE =           0.0000               STORAGE =           0.0000
       CONSTANT HEAD =       5.9486E-05         CONSTANT HEAD =       2.4000E-04
               WELLS =           0.0000                 WELLS =           0.0000

           TOTAL OUT =       5.9486E-05             TOTAL OUT =       2.4000E-04

            IN - OUT =           0.0000              IN - OUT =      -1.4552E-11

 PERCENT DISCREPANCY =           0.00     PERCENT DISCREPANCY =           0.00






         TIME SUMMARY AT END OF TIME STEP    1 IN STRESS PERIOD   17
                    SECONDS     MINUTES      HOURS       DAYS        YEARS
                    -----------------------------------------------------------
   TIME STEP LENGTH  1259.7      20.995     0.34992     1.45800E-02 3.99179E-05
 STRESS PERIOD TIME  1259.7      20.995     0.34992     1.45800E-02 3.99179E-05
         TOTAL TIME  21415.      356.92      5.9486     0.24786     6.78604E-04
1
1
                            STRESS PERIOD NO.   18, LENGTH =  0.1458000E-01
                            -----------------------------------------------

                              NUMBER OF TIME STEPS =     1

                               MULTIPLIER FOR DELT =     1.000

                            INITIAL TIME STEP SIZE =  0.1458000E-01

 WELL NO.  LAYER   ROW   COL   STRESS RATE         
 --------------------------------------------------
      1      1      1      1      0.2400E-03

      1 WELL 
 
 SOLVING FOR HEAD 

 OUTPUT CONTROL FOR STRESS PERIOD   18   TIME STEP    1
    SAVE HEAD FOR ALL LAYERS
    SAVE BUDGET
 UBDSV1 SAVING "         STORAGE" ON UNIT  31 AT TIME STEP  1, STRESS PERIOD  18
 UBDSV2 SAVING "   CONSTANT HEAD" ON UNIT  31 AT TIME STEP  1, STRESS PERIOD  18
 UBDSV1 SAVING "FLOW RIGHT FACE " ON UNIT  31 AT TIME STEP  1, STRESS PERIOD  18
 UBDSV4 SAVING "           WELLS" ON UNIT  31 AT TIME STEP  1, STRESS PERIOD  18

 SAVING SATURATED THICKNESS AND FLOW TERMS ON UNIT  333 FOR MT3DMS
 BY THE LINK-MT3DMS PACKAGE V7 AT TIME STEP    1, STRESS PERIOD   18


 HEAD WILL BE SAVED ON UNIT   30 AT END OF TIME STEP    1, STRESS PERIOD   18
1
  VOLUMETRIC BUDGET FOR ENTIRE MODEL AT END OF TIME STEP    1, STRESS PERIOD  18
  ------------------------------------------------------------------------------

     CUMULATIVE VOLUMES      L**3       RATES FOR THIS TIME STEP      L**3/T
     ------------------                 ------------------------

           IN:                                      IN:
           ---                                      ---
             STORAGE =           0.0000               STORAGE =           0.0000
       CONSTANT HEAD =           0.0000         CONSTANT HEAD =           0.0000
               WELLS =       6.2986E-05                 WELLS =       2.4000E-04

            TOTAL IN =       6.2986E-05              TOTAL IN =       2.4000E-04

          OUT:                                     OUT:
          ----                                     ----
             STORAGE =           0.0000               STORAGE =           0.0000
       CONSTANT HEAD =       6.2986E-05         CONSTANT HEAD =       2.4000E-04
               WELLS =           0.0000                 WELLS =           0.0000

           TOTAL OUT =       6.2986E-05             TOTAL OUT =       2.4000E-04

            IN - OUT =           0.0000              IN - OUT =      -1.4552E-11

 PERCENT DISCREPANCY =           0.00     PERCENT DISCREPANCY =           0.00






         TIME SUMMARY AT END OF TIME STEP    1 IN STRESS PERIOD   18
                    SECONDS     MINUTES      HOURS       DAYS        YEARS
                    -----------------------------------------------------------
   TIME STEP LENGTH  1259.7      20.995     0.34992     1.45800E-02 3.99179E-05
 STRESS PERIOD TIME  1259.7      20.995     0.34992     1.45800E-02 3.99179E-05
         TOTAL TIME  22675.      377.91      6.2986     0.26244     7.18521E-04
1
1
                            STRESS PERIOD NO.   19, LENGTH =  0.1458000E-01
                            -----------------------------------------------

                              NUMBER OF TIME STEPS =     1

                               MULTIPLIER FOR DELT =     1.000

                            INITIAL TIME STEP SIZE =  0.1458000E-01

 WELL NO.  LAYER   ROW   COL   STRESS RATE         
 --------------------------------------------------
      1      1      1      1      0.2400E-03

      1 WELL 
 
 SOLVING FOR HEAD 

 OUTPUT CONTROL FOR STRESS PERIOD   19   TIME STEP    1
    SAVE HEAD FOR ALL LAYERS
    SAVE BUDGET
 UBDSV1 SAVING "         STORAGE" ON UNIT  31 AT TIME STEP  1, STRESS PERIOD  19
 UBDSV2 SAVING "   CONSTANT HEAD" ON UNIT  31 AT TIME STEP  1, STRESS PERIOD  19
 UBDSV1 SAVING "FLOW RIGHT FACE " ON UNIT  31 AT TIME STEP  1, STRESS PERIOD  19
 UBDSV4 SAVING "           WELLS" ON UNIT  31 AT TIME STEP  1, STRESS PERIOD  19

 SAVING SATURATED THICKNESS AND FLOW TERMS ON UNIT  333 FOR MT3DMS
 BY THE LINK-MT3DMS PACKAGE V7 AT TIME STEP    1, STRESS PERIOD   19


 HEAD WILL BE SAVED ON UNIT   30 AT END OF TIME STEP    1, STRESS PERIOD   19
1
  VOLUMETRIC BUDGET FOR ENTIRE MODEL AT END OF TIME STEP    1, STRESS PERIOD  19
  ------------------------------------------------------------------------------

     CUMULATIVE VOLUMES      L**3       RATES FOR THIS TIME STEP      L**3/T
     ------------------                 ------------------------

           IN:                                      IN:
           ---                                      ---
             STORAGE =           0.0000               STORAGE =           0.0000
       CONSTANT HEAD =           0.0000         CONSTANT HEAD =           0.0000
               WELLS =       6.6485E-05                 WELLS =       2.4000E-04

            TOTAL IN =       6.6485E-05              TOTAL IN =       2.4000E-04

          OUT:                                     OUT:
          ----                                     ----
             STORAGE =           0.0000               STORAGE =           0.0000
       CONSTANT HEAD =       6.6485E-05         CONSTANT HEAD =       2.4000E-04
               WELLS =           0.0000                 WELLS =           0.0000

           TOTAL OUT =       6.6485E-05             TOTAL OUT =       2.4000E-04

            IN - OUT =           0.0000              IN - OUT =      -1.4552E-11

 PERCENT DISCREPANCY =           0.00     PERCENT DISCREPANCY =           0.00






         TIME SUMMARY AT END OF TIME STEP    1 IN STRESS PERIOD   19
                    SECONDS     MINUTES      HOURS       DAYS        YEARS
                    -----------------------------------------------------------
   TIME STEP LENGTH  1259.7      20.995     0.34992     1.45800E-02 3.99179E-05
 STRESS PERIOD TIME  1259.7      20.995     0.34992     1.45800E-02 3.99179E-05
         TOTAL TIME  23935.      398.91      6.6485     0.27702     7.58439E-04
1
1
                            STRESS PERIOD NO.   20, LENGTH =  0.1458000E-01
                            -----------------------------------------------

                              NUMBER OF TIME STEPS =     1

                               MULTIPLIER FOR DELT =     1.000

                            INITIAL TIME STEP SIZE =  0.1458000E-01

 WELL NO.  LAYER   ROW   COL   STRESS RATE         
 --------------------------------------------------
      1      1      1      1      0.2400E-03

      1 WELL 
 
 SOLVING FOR HEAD 

 OUTPUT CONTROL FOR STRESS PERIOD   20   TIME STEP    1
    SAVE HEAD FOR ALL LAYERS
    SAVE BUDGET
 UBDSV1 SAVING "         STORAGE" ON UNIT  31 AT TIME STEP  1, STRESS PERIOD  20
 UBDSV2 SAVING "   CONSTANT HEAD" ON UNIT  31 AT TIME STEP  1, STRESS PERIOD  20
 UBDSV1 SAVING "FLOW RIGHT FACE " ON UNIT  31 AT TIME STEP  1, STRESS PERIOD  20
 UBDSV4 SAVING "           WELLS" ON UNIT  31 AT TIME STEP  1, STRESS PERIOD  20

 SAVING SATURATED THICKNESS AND FLOW TERMS ON UNIT  333 FOR MT3DMS
 BY THE LINK-MT3DMS PACKAGE V7 AT TIME STEP    1, STRESS PERIOD   20


 HEAD WILL BE SAVED ON UNIT   30 AT END OF TIME STEP    1, STRESS PERIOD   20
1
  VOLUMETRIC BUDGET FOR ENTIRE MODEL AT END OF TIME STEP    1, STRESS PERIOD  20
  ------------------------------------------------------------------------------

     CUMULATIVE VOLUMES      L**3       RATES FOR THIS TIME STEP      L**3/T
     ------------------                 ------------------------

           IN:                                      IN:
           ---                                      ---
             STORAGE =           0.0000               STORAGE =           0.0000
       CONSTANT HEAD =           0.0000         CONSTANT HEAD =           0.0000
               WELLS =       6.9984E-05                 WELLS =       2.4000E-04

            TOTAL IN =       6.9984E-05              TOTAL IN =       2.4000E-04

          OUT:                                     OUT:
          ----                                     ----
             STORAGE =           0.0000               STORAGE =           0.0000
       CONSTANT HEAD =       6.9984E-05         CONSTANT HEAD =       2.4000E-04
               WELLS =           0.0000                 WELLS =           0.0000

           TOTAL OUT =       6.9984E-05             TOTAL OUT =       2.4000E-04

            IN - OUT =           0.0000              IN - OUT =      -1.4552E-11

 PERCENT DISCREPANCY =           0.00     PERCENT DISCREPANCY =           0.00






         TIME SUMMARY AT END OF TIME STEP    1 IN STRESS PERIOD   20
                    SECONDS     MINUTES      HOURS       DAYS        YEARS
                    -----------------------------------------------------------
   TIME STEP LENGTH  1259.7      20.995     0.34992     1.45800E-02 3.99179E-05
 STRESS PERIOD TIME  1259.7      20.995     0.34992     1.45800E-02 3.99179E-05
         TOTAL TIME  25194.      419.90      6.9984     0.29160     7.98357E-04
1
1
                            STRESS PERIOD NO.   21, LENGTH =  0.1458000E-01
                            -----------------------------------------------

                              NUMBER OF TIME STEPS =     1

                               MULTIPLIER FOR DELT =     1.000

                            INITIAL TIME STEP SIZE =  0.1458000E-01

 WELL NO.  LAYER   ROW   COL   STRESS RATE         
 --------------------------------------------------
      1      1      1      1      0.2400E-03

      1 WELL 
 
 SOLVING FOR HEAD 

 OUTPUT CONTROL FOR STRESS PERIOD   21   TIME STEP    1
    SAVE HEAD FOR ALL LAYERS
    SAVE BUDGET
 UBDSV1 SAVING "         STORAGE" ON UNIT  31 AT TIME STEP  1, STRESS PERIOD  21
 UBDSV2 SAVING "   CONSTANT HEAD" ON UNIT  31 AT TIME STEP  1, STRESS PERIOD  21
 UBDSV1 SAVING "FLOW RIGHT FACE " ON UNIT  31 AT TIME STEP  1, STRESS PERIOD  21
 UBDSV4 SAVING "           WELLS" ON UNIT  31 AT TIME STEP  1, STRESS PERIOD  21

 SAVING SATURATED THICKNESS AND FLOW TERMS ON UNIT  333 FOR MT3DMS
 BY THE LINK-MT3DMS PACKAGE V7 AT TIME STEP    1, STRESS PERIOD   21


 HEAD WILL BE SAVED ON UNIT   30 AT END OF TIME STEP    1, STRESS PERIOD   21
1
  VOLUMETRIC BUDGET FOR ENTIRE MODEL AT END OF TIME STEP    1, STRESS PERIOD  21
  ------------------------------------------------------------------------------

     CUMULATIVE VOLUMES      L**3       RATES FOR THIS TIME STEP      L**3/T
     ------------------                 ------------------------

           IN:                                      IN:
           ---                                      ---
             STORAGE =           0.0000               STORAGE =           0.0000
       CONSTANT HEAD =           0.0000         CONSTANT HEAD =           0.0000
               WELLS =       7.3483E-05                 WELLS =       2.4000E-04

            TOTAL IN =       7.3483E-05              TOTAL IN =       2.4000E-04

          OUT:                                     OUT:
          ----                                     ----
             STORAGE =           0.0000               STORAGE =           0.0000
       CONSTANT HEAD =       7.3483E-05         CONSTANT HEAD =       2.4000E-04
               WELLS =           0.0000                 WELLS =           0.0000

           TOTAL OUT =       7.3483E-05             TOTAL OUT =       2.4000E-04

            IN - OUT =           0.0000              IN - OUT =      -1.4552E-11

 PERCENT DISCREPANCY =           0.00     PERCENT DISCREPANCY =           0.00






         TIME SUMMARY AT END OF TIME STEP    1 IN STRESS PERIOD   21
                    SECONDS     MINUTES      HOURS       DAYS        YEARS
                    -----------------------------------------------------------
   TIME STEP LENGTH  1259.7      20.995     0.34992     1.45800E-02 3.99179E-05
 STRESS PERIOD TIME  1259.7      20.995     0.34992     1.45800E-02 3.99179E-05
         TOTAL TIME  26454.      440.90      7.3483     0.30618     8.38275E-04
1
1
                            STRESS PERIOD NO.   22, LENGTH =  0.1458000E-01
                            -----------------------------------------------

                              NUMBER OF TIME STEPS =     1

                               MULTIPLIER FOR DELT =     1.000

                            INITIAL TIME STEP SIZE =  0.1458000E-01

 WELL NO.  LAYER   ROW   COL   STRESS RATE         
 --------------------------------------------------
      1      1      1      1      0.2400E-03

      1 WELL 
 
 SOLVING FOR HEAD 

 OUTPUT CONTROL FOR STRESS PERIOD   22   TIME STEP    1
    SAVE HEAD FOR ALL LAYERS
    SAVE BUDGET
 UBDSV1 SAVING "         STORAGE" ON UNIT  31 AT TIME STEP  1, STRESS PERIOD  22
 UBDSV2 SAVING "   CONSTANT HEAD" ON UNIT  31 AT TIME STEP  1, STRESS PERIOD  22
 UBDSV1 SAVING "FLOW RIGHT FACE " ON UNIT  31 AT TIME STEP  1, STRESS PERIOD  22
 UBDSV4 SAVING "           WELLS" ON UNIT  31 AT TIME STEP  1, STRESS PERIOD  22

 SAVING SATURATED THICKNESS AND FLOW TERMS ON UNIT  333 FOR MT3DMS
 BY THE LINK-MT3DMS PACKAGE V7 AT TIME STEP    1, STRESS PERIOD   22


 HEAD WILL BE SAVED ON UNIT   30 AT END OF TIME STEP    1, STRESS PERIOD   22
1
  VOLUMETRIC BUDGET FOR ENTIRE MODEL AT END OF TIME STEP    1, STRESS PERIOD  22
  ------------------------------------------------------------------------------

     CUMULATIVE VOLUMES      L**3       RATES FOR THIS TIME STEP      L**3/T
     ------------------                 ------------------------

           IN:                                      IN:
           ---                                      ---
             STORAGE =           0.0000               STORAGE =           0.0000
       CONSTANT HEAD =           0.0000         CONSTANT HEAD =           0.0000
               WELLS =       7.6982E-05                 WELLS =       2.4000E-04

            TOTAL IN =       7.6982E-05              TOTAL IN =       2.4000E-04

          OUT:                                     OUT:
          ----                                     ----
             STORAGE =           0.0000               STORAGE =           0.0000
       CONSTANT HEAD =       7.6982E-05         CONSTANT HEAD =       2.4000E-04
               WELLS =           0.0000                 WELLS =           0.0000

           TOTAL OUT =       7.6982E-05             TOTAL OUT =       2.4000E-04

            IN - OUT =           0.0000              IN - OUT =      -1.4552E-11

 PERCENT DISCREPANCY =           0.00     PERCENT DISCREPANCY =           0.00






         TIME SUMMARY AT END OF TIME STEP    1 IN STRESS PERIOD   22
                    SECONDS     MINUTES      HOURS       DAYS        YEARS
                    -----------------------------------------------------------
   TIME STEP LENGTH  1259.7      20.995     0.34992     1.45800E-02 3.99179E-05
 STRESS PERIOD TIME  1259.7      20.995     0.34992     1.45800E-02 3.99179E-05
         TOTAL TIME  27714.      461.89      7.6982     0.32076     8.78193E-04
1
1
                            STRESS PERIOD NO.   23, LENGTH =  0.1458000E-01
                            -----------------------------------------------

                              NUMBER OF TIME STEPS =     1

                               MULTIPLIER FOR DELT =     1.000

                            INITIAL TIME STEP SIZE =  0.1458000E-01

 WELL NO.  LAYER   ROW   COL   STRESS RATE         
 --------------------------------------------------
      1      1      1      1      0.2400E-03

      1 WELL 
 
 SOLVING FOR HEAD 

 OUTPUT CONTROL FOR STRESS PERIOD   23   TIME STEP    1
    SAVE HEAD FOR ALL LAYERS
    SAVE BUDGET
 UBDSV1 SAVING "         STORAGE" ON UNIT  31 AT TIME STEP  1, STRESS PERIOD  23
 UBDSV2 SAVING "   CONSTANT HEAD" ON UNIT  31 AT TIME STEP  1, STRESS PERIOD  23
 UBDSV1 SAVING "FLOW RIGHT FACE " ON UNIT  31 AT TIME STEP  1, STRESS PERIOD  23
 UBDSV4 SAVING "           WELLS" ON UNIT  31 AT TIME STEP  1, STRESS PERIOD  23

 SAVING SATURATED THICKNESS AND FLOW TERMS ON UNIT  333 FOR MT3DMS
 BY THE LINK-MT3DMS PACKAGE V7 AT TIME STEP    1, STRESS PERIOD   23


 HEAD WILL BE SAVED ON UNIT   30 AT END OF TIME STEP    1, STRESS PERIOD   23
1
  VOLUMETRIC BUDGET FOR ENTIRE MODEL AT END OF TIME STEP    1, STRESS PERIOD  23
  ------------------------------------------------------------------------------

     CUMULATIVE VOLUMES      L**3       RATES FOR THIS TIME STEP      L**3/T
     ------------------                 ------------------------

           IN:                                      IN:
           ---                                      ---
             STORAGE =           0.0000               STORAGE =           0.0000
       CONSTANT HEAD =           0.0000         CONSTANT HEAD =           0.0000
               WELLS =       8.0482E-05                 WELLS =       2.4000E-04

            TOTAL IN =       8.0482E-05              TOTAL IN =       2.4000E-04

          OUT:                                     OUT:
          ----                                     ----
             STORAGE =           0.0000               STORAGE =           0.0000
       CONSTANT HEAD =       8.0482E-05         CONSTANT HEAD =       2.4000E-04
               WELLS =           0.0000                 WELLS =           0.0000

           TOTAL OUT =       8.0482E-05             TOTAL OUT =       2.4000E-04

            IN - OUT =           0.0000              IN - OUT =      -1.4552E-11

 PERCENT DISCREPANCY =           0.00     PERCENT DISCREPANCY =           0.00






         TIME SUMMARY AT END OF TIME STEP    1 IN STRESS PERIOD   23
                    SECONDS     MINUTES      HOURS       DAYS        YEARS
                    -----------------------------------------------------------
   TIME STEP LENGTH  1259.7      20.995     0.34992     1.45800E-02 3.99179E-05
 STRESS PERIOD TIME  1259.7      20.995     0.34992     1.45800E-02 3.99179E-05
         TOTAL TIME  28973.      482.89      8.0482     0.33534     9.18111E-04
1
1
                            STRESS PERIOD NO.   24, LENGTH =  0.1458000E-01
                            -----------------------------------------------

                              NUMBER OF TIME STEPS =     1

                               MULTIPLIER FOR DELT =     1.000

                            INITIAL TIME STEP SIZE =  0.1458000E-01

 WELL NO.  LAYER   ROW   COL   STRESS RATE         
 --------------------------------------------------
      1      1      1      1      0.2400E-03

      1 WELL 
 
 SOLVING FOR HEAD 

 OUTPUT CONTROL FOR STRESS PERIOD   24   TIME STEP    1
    SAVE HEAD FOR ALL LAYERS
    SAVE BUDGET
 UBDSV1 SAVING "         STORAGE" ON UNIT  31 AT TIME STEP  1, STRESS PERIOD  24
 UBDSV2 SAVING "   CONSTANT HEAD" ON UNIT  31 AT TIME STEP  1, STRESS PERIOD  24
 UBDSV1 SAVING "FLOW RIGHT FACE " ON UNIT  31 AT TIME STEP  1, STRESS PERIOD  24
 UBDSV4 SAVING "           WELLS" ON UNIT  31 AT TIME STEP  1, STRESS PERIOD  24

 SAVING SATURATED THICKNESS AND FLOW TERMS ON UNIT  333 FOR MT3DMS
 BY THE LINK-MT3DMS PACKAGE V7 AT TIME STEP    1, STRESS PERIOD   24


 HEAD WILL BE SAVED ON UNIT   30 AT END OF TIME STEP    1, STRESS PERIOD   24
1
  VOLUMETRIC BUDGET FOR ENTIRE MODEL AT END OF TIME STEP    1, STRESS PERIOD  24
  ------------------------------------------------------------------------------

     CUMULATIVE VOLUMES      L**3       RATES FOR THIS TIME STEP      L**3/T
     ------------------                 ------------------------

           IN:                                      IN:
           ---                                      ---
             STORAGE =           0.0000               STORAGE =           0.0000
       CONSTANT HEAD =           0.0000         CONSTANT HEAD =           0.0000
               WELLS =       8.3981E-05                 WELLS =       2.4000E-04

            TOTAL IN =       8.3981E-05              TOTAL IN =       2.4000E-04

          OUT:                                     OUT:
          ----                                     ----
             STORAGE =           0.0000               STORAGE =           0.0000
       CONSTANT HEAD =       8.3981E-05         CONSTANT HEAD =       2.4000E-04
               WELLS =           0.0000                 WELLS =           0.0000

           TOTAL OUT =       8.3981E-05             TOTAL OUT =       2.4000E-04

            IN - OUT =           0.0000              IN - OUT =      -1.4552E-11

 PERCENT DISCREPANCY =           0.00     PERCENT DISCREPANCY =           0.00






         TIME SUMMARY AT END OF TIME STEP    1 IN STRESS PERIOD   24
                    SECONDS     MINUTES      HOURS       DAYS        YEARS
                    -----------------------------------------------------------
   TIME STEP LENGTH  1259.7      20.995     0.34992     1.45800E-02 3.99179E-05
 STRESS PERIOD TIME  1259.7      20.995     0.34992     1.45800E-02 3.99179E-05
         TOTAL TIME  30233.      503.88      8.3981     0.34992     9.58029E-04
1
1
                            STRESS PERIOD NO.   25, LENGTH =  0.1458000E-01
                            -----------------------------------------------

                              NUMBER OF TIME STEPS =     1

                               MULTIPLIER FOR DELT =     1.000

                            INITIAL TIME STEP SIZE =  0.1458000E-01

 WELL NO.  LAYER   ROW   COL   STRESS RATE         
 --------------------------------------------------
      1      1      1      1      0.2400E-03

      1 WELL 
 
 SOLVING FOR HEAD 

 OUTPUT CONTROL FOR STRESS PERIOD   25   TIME STEP    1
    SAVE HEAD FOR ALL LAYERS
    SAVE BUDGET
 UBDSV1 SAVING "         STORAGE" ON UNIT  31 AT TIME STEP  1, STRESS PERIOD  25
 UBDSV2 SAVING "   CONSTANT HEAD" ON UNIT  31 AT TIME STEP  1, STRESS PERIOD  25
 UBDSV1 SAVING "FLOW RIGHT FACE " ON UNIT  31 AT TIME STEP  1, STRESS PERIOD  25
 UBDSV4 SAVING "           WELLS" ON UNIT  31 AT TIME STEP  1, STRESS PERIOD  25

 SAVING SATURATED THICKNESS AND FLOW TERMS ON UNIT  333 FOR MT3DMS
 BY THE LINK-MT3DMS PACKAGE V7 AT TIME STEP    1, STRESS PERIOD   25


 HEAD WILL BE SAVED ON UNIT   30 AT END OF TIME STEP    1, STRESS PERIOD   25
1
  VOLUMETRIC BUDGET FOR ENTIRE MODEL AT END OF TIME STEP    1, STRESS PERIOD  25
  ------------------------------------------------------------------------------

     CUMULATIVE VOLUMES      L**3       RATES FOR THIS TIME STEP      L**3/T
     ------------------                 ------------------------

           IN:                                      IN:
           ---                                      ---
             STORAGE =           0.0000               STORAGE =           0.0000
       CONSTANT HEAD =           0.0000         CONSTANT HEAD =           0.0000
               WELLS =       8.7480E-05                 WELLS =       2.4000E-04

            TOTAL IN =       8.7480E-05              TOTAL IN =       2.4000E-04

          OUT:                                     OUT:
          ----                                     ----
             STORAGE =           0.0000               STORAGE =           0.0000
       CONSTANT HEAD =       8.7480E-05         CONSTANT HEAD =       2.4000E-04
               WELLS =           0.0000                 WELLS =           0.0000

           TOTAL OUT =       8.7480E-05             TOTAL OUT =       2.4000E-04

            IN - OUT =           0.0000              IN - OUT =      -1.4552E-11

 PERCENT DISCREPANCY =           0.00     PERCENT DISCREPANCY =           0.00






         TIME SUMMARY AT END OF TIME STEP    1 IN STRESS PERIOD   25
                    SECONDS     MINUTES      HOURS       DAYS        YEARS
                    -----------------------------------------------------------
   TIME STEP LENGTH  1259.7      20.995     0.34992     1.45800E-02 3.99179E-05
 STRESS PERIOD TIME  1259.7      20.995     0.34992     1.45800E-02 3.99179E-05
         TOTAL TIME  31493.      524.88      8.7480     0.36450     9.97947E-04
1
1
                            STRESS PERIOD NO.   26, LENGTH =  0.1458000E-01
                            -----------------------------------------------

                              NUMBER OF TIME STEPS =     1

                               MULTIPLIER FOR DELT =     1.000

                            INITIAL TIME STEP SIZE =  0.1458000E-01

 WELL NO.  LAYER   ROW   COL   STRESS RATE         
 --------------------------------------------------
      1      1      1      1      0.2400E-03

      1 WELL 
 
 SOLVING FOR HEAD 

 OUTPUT CONTROL FOR STRESS PERIOD   26   TIME STEP    1
    SAVE HEAD FOR ALL LAYERS
    SAVE BUDGET
 UBDSV1 SAVING "         STORAGE" ON UNIT  31 AT TIME STEP  1, STRESS PERIOD  26
 UBDSV2 SAVING "   CONSTANT HEAD" ON UNIT  31 AT TIME STEP  1, STRESS PERIOD  26
 UBDSV1 SAVING "FLOW RIGHT FACE " ON UNIT  31 AT TIME STEP  1, STRESS PERIOD  26
 UBDSV4 SAVING "           WELLS" ON UNIT  31 AT TIME STEP  1, STRESS PERIOD  26

 SAVING SATURATED THICKNESS AND FLOW TERMS ON UNIT  333 FOR MT3DMS
 BY THE LINK-MT3DMS PACKAGE V7 AT TIME STEP    1, STRESS PERIOD   26


 HEAD WILL BE SAVED ON UNIT   30 AT END OF TIME STEP    1, STRESS PERIOD   26
1
  VOLUMETRIC BUDGET FOR ENTIRE MODEL AT END OF TIME STEP    1, STRESS PERIOD  26
  ------------------------------------------------------------------------------

     CUMULATIVE VOLUMES      L**3       RATES FOR THIS TIME STEP      L**3/T
     ------------------                 ------------------------

           IN:                                      IN:
           ---                                      ---
             STORAGE =           0.0000               STORAGE =           0.0000
       CONSTANT HEAD =           0.0000         CONSTANT HEAD =           0.0000
               WELLS =       9.0979E-05                 WELLS =       2.4000E-04

            TOTAL IN =       9.0979E-05              TOTAL IN =       2.4000E-04

          OUT:                                     OUT:
          ----                                     ----
             STORAGE =           0.0000               STORAGE =           0.0000
       CONSTANT HEAD =       9.0979E-05         CONSTANT HEAD =       2.4000E-04
               WELLS =           0.0000                 WELLS =           0.0000

           TOTAL OUT =       9.0979E-05             TOTAL OUT =       2.4000E-04

            IN - OUT =           0.0000              IN - OUT =      -1.4552E-11

 PERCENT DISCREPANCY =           0.00     PERCENT DISCREPANCY =           0.00






         TIME SUMMARY AT END OF TIME STEP    1 IN STRESS PERIOD   26
                    SECONDS     MINUTES      HOURS       DAYS        YEARS
                    -----------------------------------------------------------
   TIME STEP LENGTH  1259.7      20.995     0.34992     1.45800E-02 3.99179E-05
 STRESS PERIOD TIME  1259.7      20.995     0.34992     1.45800E-02 3.99179E-05
         TOTAL TIME  32753.      545.88      9.0979     0.37908     1.03786E-03
1
1
                            STRESS PERIOD NO.   27, LENGTH =  0.1458000E-01
                            -----------------------------------------------

                              NUMBER OF TIME STEPS =     1

                               MULTIPLIER FOR DELT =     1.000

                            INITIAL TIME STEP SIZE =  0.1458000E-01

 WELL NO.  LAYER   ROW   COL   STRESS RATE         
 --------------------------------------------------
      1      1      1      1      0.2400E-03

      1 WELL 
 
 SOLVING FOR HEAD 

 OUTPUT CONTROL FOR STRESS PERIOD   27   TIME STEP    1
    SAVE HEAD FOR ALL LAYERS
    SAVE BUDGET
 UBDSV1 SAVING "         STORAGE" ON UNIT  31 AT TIME STEP  1, STRESS PERIOD  27
 UBDSV2 SAVING "   CONSTANT HEAD" ON UNIT  31 AT TIME STEP  1, STRESS PERIOD  27
 UBDSV1 SAVING "FLOW RIGHT FACE " ON UNIT  31 AT TIME STEP  1, STRESS PERIOD  27
 UBDSV4 SAVING "           WELLS" ON UNIT  31 AT TIME STEP  1, STRESS PERIOD  27

 SAVING SATURATED THICKNESS AND FLOW TERMS ON UNIT  333 FOR MT3DMS
 BY THE LINK-MT3DMS PACKAGE V7 AT TIME STEP    1, STRESS PERIOD   27


 HEAD WILL BE SAVED ON UNIT   30 AT END OF TIME STEP    1, STRESS PERIOD   27
1
  VOLUMETRIC BUDGET FOR ENTIRE MODEL AT END OF TIME STEP    1, STRESS PERIOD  27
  ------------------------------------------------------------------------------

     CUMULATIVE VOLUMES      L**3       RATES FOR THIS TIME STEP      L**3/T
     ------------------                 ------------------------

           IN:                                      IN:
           ---                                      ---
             STORAGE =           0.0000               STORAGE =           0.0000
       CONSTANT HEAD =           0.0000         CONSTANT HEAD =           0.0000
               WELLS =       9.4478E-05                 WELLS =       2.4000E-04

            TOTAL IN =       9.4478E-05              TOTAL IN =       2.4000E-04

          OUT:                                     OUT:
          ----                                     ----
             STORAGE =           0.0000               STORAGE =           0.0000
       CONSTANT HEAD =       9.4478E-05         CONSTANT HEAD =       2.4000E-04
               WELLS =           0.0000                 WELLS =           0.0000

           TOTAL OUT =       9.4478E-05             TOTAL OUT =       2.4000E-04

            IN - OUT =           0.0000              IN - OUT =      -1.4552E-11

 PERCENT DISCREPANCY =           0.00     PERCENT DISCREPANCY =           0.00






         TIME SUMMARY AT END OF TIME STEP    1 IN STRESS PERIOD   27
                    SECONDS     MINUTES      HOURS       DAYS        YEARS
                    -----------------------------------------------------------
   TIME STEP LENGTH  1259.7      20.995     0.34992     1.45800E-02 3.99179E-05
 STRESS PERIOD TIME  1259.7      20.995     0.34992     1.45800E-02 3.99179E-05
         TOTAL TIME  34012.      566.87      9.4478     0.39366     1.07778E-03
1
1
                            STRESS PERIOD NO.   28, LENGTH =  0.1458000E-01
                            -----------------------------------------------

                              NUMBER OF TIME STEPS =     1

                               MULTIPLIER FOR DELT =     1.000

                            INITIAL TIME STEP SIZE =  0.1458000E-01

 WELL NO.  LAYER   ROW   COL   STRESS RATE         
 --------------------------------------------------
      1      1      1      1      0.2400E-03

      1 WELL 
 
 SOLVING FOR HEAD 

 OUTPUT CONTROL FOR STRESS PERIOD   28   TIME STEP    1
    SAVE HEAD FOR ALL LAYERS
    SAVE BUDGET
 UBDSV1 SAVING "         STORAGE" ON UNIT  31 AT TIME STEP  1, STRESS PERIOD  28
 UBDSV2 SAVING "   CONSTANT HEAD" ON UNIT  31 AT TIME STEP  1, STRESS PERIOD  28
 UBDSV1 SAVING "FLOW RIGHT FACE " ON UNIT  31 AT TIME STEP  1, STRESS PERIOD  28
 UBDSV4 SAVING "           WELLS" ON UNIT  31 AT TIME STEP  1, STRESS PERIOD  28

 SAVING SATURATED THICKNESS AND FLOW TERMS ON UNIT  333 FOR MT3DMS
 BY THE LINK-MT3DMS PACKAGE V7 AT TIME STEP    1, STRESS PERIOD   28


 HEAD WILL BE SAVED ON UNIT   30 AT END OF TIME STEP    1, STRESS PERIOD   28
1
  VOLUMETRIC BUDGET FOR ENTIRE MODEL AT END OF TIME STEP    1, STRESS PERIOD  28
  ------------------------------------------------------------------------------

     CUMULATIVE VOLUMES      L**3       RATES FOR THIS TIME STEP      L**3/T
     ------------------                 ------------------------

           IN:                                      IN:
           ---                                      ---
             STORAGE =           0.0000               STORAGE =           0.0000
       CONSTANT HEAD =           0.0000         CONSTANT HEAD =           0.0000
               WELLS =       9.7978E-05                 WELLS =       2.4000E-04

            TOTAL IN =       9.7978E-05              TOTAL IN =       2.4000E-04

          OUT:                                     OUT:
          ----                                     ----
             STORAGE =           0.0000               STORAGE =           0.0000
       CONSTANT HEAD =       9.7978E-05         CONSTANT HEAD =       2.4000E-04
               WELLS =           0.0000                 WELLS =           0.0000

           TOTAL OUT =       9.7978E-05             TOTAL OUT =       2.4000E-04

            IN - OUT =           0.0000              IN - OUT =      -1.4552E-11

 PERCENT DISCREPANCY =           0.00     PERCENT DISCREPANCY =           0.00






         TIME SUMMARY AT END OF TIME STEP    1 IN STRESS PERIOD   28
                    SECONDS     MINUTES      HOURS       DAYS        YEARS
                    -----------------------------------------------------------
   TIME STEP LENGTH  1259.7      20.995     0.34992     1.45800E-02 3.99179E-05
 STRESS PERIOD TIME  1259.7      20.995     0.34992     1.45800E-02 3.99179E-05
         TOTAL TIME  35272.      587.87      9.7978     0.40824     1.11770E-03
1
1
                            STRESS PERIOD NO.   29, LENGTH =  0.1458000E-01
                            -----------------------------------------------

                              NUMBER OF TIME STEPS =     1

                               MULTIPLIER FOR DELT =     1.000

                            INITIAL TIME STEP SIZE =  0.1458000E-01

 WELL NO.  LAYER   ROW   COL   STRESS RATE         
 --------------------------------------------------
      1      1      1      1      0.2400E-03

      1 WELL 
 
 SOLVING FOR HEAD 

 OUTPUT CONTROL FOR STRESS PERIOD   29   TIME STEP    1
    SAVE HEAD FOR ALL LAYERS
    SAVE BUDGET
 UBDSV1 SAVING "         STORAGE" ON UNIT  31 AT TIME STEP  1, STRESS PERIOD  29
 UBDSV2 SAVING "   CONSTANT HEAD" ON UNIT  31 AT TIME STEP  1, STRESS PERIOD  29
 UBDSV1 SAVING "FLOW RIGHT FACE " ON UNIT  31 AT TIME STEP  1, STRESS PERIOD  29
 UBDSV4 SAVING "           WELLS" ON UNIT  31 AT TIME STEP  1, STRESS PERIOD  29

 SAVING SATURATED THICKNESS AND FLOW TERMS ON UNIT  333 FOR MT3DMS
 BY THE LINK-MT3DMS PACKAGE V7 AT TIME STEP    1, STRESS PERIOD   29


 HEAD WILL BE SAVED ON UNIT   30 AT END OF TIME STEP    1, STRESS PERIOD   29
1
  VOLUMETRIC BUDGET FOR ENTIRE MODEL AT END OF TIME STEP    1, STRESS PERIOD  29
  ------------------------------------------------------------------------------

     CUMULATIVE VOLUMES      L**3       RATES FOR THIS TIME STEP      L**3/T
     ------------------                 ------------------------

           IN:                                      IN:
           ---                                      ---
             STORAGE =           0.0000               STORAGE =           0.0000
       CONSTANT HEAD =           0.0000         CONSTANT HEAD =           0.0000
               WELLS =       1.0148E-04                 WELLS =       2.4000E-04

            TOTAL IN =       1.0148E-04              TOTAL IN =       2.4000E-04

          OUT:                                     OUT:
          ----                                     ----
             STORAGE =           0.0000               STORAGE =           0.0000
       CONSTANT HEAD =       1.0148E-04         CONSTANT HEAD =       2.4000E-04
               WELLS =           0.0000                 WELLS =           0.0000

           TOTAL OUT =       1.0148E-04             TOTAL OUT =       2.4000E-04

            IN - OUT =           0.0000              IN - OUT =      -1.4552E-11

 PERCENT DISCREPANCY =           0.00     PERCENT DISCREPANCY =           0.00






         TIME SUMMARY AT END OF TIME STEP    1 IN STRESS PERIOD   29
                    SECONDS     MINUTES      HOURS       DAYS        YEARS
                    -----------------------------------------------------------
   TIME STEP LENGTH  1259.7      20.995     0.34992     1.45800E-02 3.99179E-05
 STRESS PERIOD TIME  1259.7      20.995     0.34992     1.45800E-02 3.99179E-05
         TOTAL TIME  36532.      608.86      10.148     0.42282     1.15762E-03
1
1
                            STRESS PERIOD NO.   30, LENGTH =  0.1458000E-01
                            -----------------------------------------------

                              NUMBER OF TIME STEPS =     1

                               MULTIPLIER FOR DELT =     1.000

                            INITIAL TIME STEP SIZE =  0.1458000E-01

 WELL NO.  LAYER   ROW   COL   STRESS RATE         
 --------------------------------------------------
      1      1      1      1      0.2400E-03

      1 WELL 
 
 SOLVING FOR HEAD 

 OUTPUT CONTROL FOR STRESS PERIOD   30   TIME STEP    1
    SAVE HEAD FOR ALL LAYERS
    SAVE BUDGET
 UBDSV1 SAVING "         STORAGE" ON UNIT  31 AT TIME STEP  1, STRESS PERIOD  30
 UBDSV2 SAVING "   CONSTANT HEAD" ON UNIT  31 AT TIME STEP  1, STRESS PERIOD  30
 UBDSV1 SAVING "FLOW RIGHT FACE " ON UNIT  31 AT TIME STEP  1, STRESS PERIOD  30
 UBDSV4 SAVING "           WELLS" ON UNIT  31 AT TIME STEP  1, STRESS PERIOD  30

 SAVING SATURATED THICKNESS AND FLOW TERMS ON UNIT  333 FOR MT3DMS
 BY THE LINK-MT3DMS PACKAGE V7 AT TIME STEP    1, STRESS PERIOD   30


 HEAD WILL BE SAVED ON UNIT   30 AT END OF TIME STEP    1, STRESS PERIOD   30
1
  VOLUMETRIC BUDGET FOR ENTIRE MODEL AT END OF TIME STEP    1, STRESS PERIOD  30
  ------------------------------------------------------------------------------

     CUMULATIVE VOLUMES      L**3       RATES FOR THIS TIME STEP      L**3/T
     ------------------                 ------------------------

           IN:                                      IN:
           ---                                      ---
             STORAGE =           0.0000               STORAGE =           0.0000
       CONSTANT HEAD =           0.0000         CONSTANT HEAD =           0.0000
               WELLS =       1.0498E-04                 WELLS =       2.4000E-04

            TOTAL IN =       1.0498E-04              TOTAL IN =       2.4000E-04

          OUT:                                     OUT:
          ----                                     ----
             STORAGE =           0.0000               STORAGE =           0.0000
       CONSTANT HEAD =       1.0498E-04         CONSTANT HEAD =       2.4000E-04
               WELLS =           0.0000                 WELLS =           0.0000

           TOTAL OUT =       1.0498E-04             TOTAL OUT =       2.4000E-04

            IN - OUT =           0.0000              IN - OUT =      -1.4552E-11

 PERCENT DISCREPANCY =           0.00     PERCENT DISCREPANCY =           0.00






         TIME SUMMARY AT END OF TIME STEP    1 IN STRESS PERIOD   30
                    SECONDS     MINUTES      HOURS       DAYS        YEARS
                    -----------------------------------------------------------
   TIME STEP LENGTH  1259.7      20.995     0.34992     1.45800E-02 3.99179E-05
 STRESS PERIOD TIME  1259.7      20.995     0.34992     1.45800E-02 3.99179E-05
         TOTAL TIME  37791.      629.86      10.498     0.43740     1.19754E-03
1
1
                            STRESS PERIOD NO.   31, LENGTH =  0.1458000E-01
                            -----------------------------------------------

                              NUMBER OF TIME STEPS =     1

                               MULTIPLIER FOR DELT =     1.000

                            INITIAL TIME STEP SIZE =  0.1458000E-01

 WELL NO.  LAYER   ROW   COL   STRESS RATE         
 --------------------------------------------------
      1      1      1      1      0.2400E-03

      1 WELL 
 
 SOLVING FOR HEAD 

 OUTPUT CONTROL FOR STRESS PERIOD   31   TIME STEP    1
    SAVE HEAD FOR ALL LAYERS
    SAVE BUDGET
 UBDSV1 SAVING "         STORAGE" ON UNIT  31 AT TIME STEP  1, STRESS PERIOD  31
 UBDSV2 SAVING "   CONSTANT HEAD" ON UNIT  31 AT TIME STEP  1, STRESS PERIOD  31
 UBDSV1 SAVING "FLOW RIGHT FACE " ON UNIT  31 AT TIME STEP  1, STRESS PERIOD  31
 UBDSV4 SAVING "           WELLS" ON UNIT  31 AT TIME STEP  1, STRESS PERIOD  31

 SAVING SATURATED THICKNESS AND FLOW TERMS ON UNIT  333 FOR MT3DMS
 BY THE LINK-MT3DMS PACKAGE V7 AT TIME STEP    1, STRESS PERIOD   31


 HEAD WILL BE SAVED ON UNIT   30 AT END OF TIME STEP    1, STRESS PERIOD   31
1
  VOLUMETRIC BUDGET FOR ENTIRE MODEL AT END OF TIME STEP    1, STRESS PERIOD  31
  ------------------------------------------------------------------------------

     CUMULATIVE VOLUMES      L**3       RATES FOR THIS TIME STEP      L**3/T
     ------------------                 ------------------------

           IN:                                      IN:
           ---                                      ---
             STORAGE =           0.0000               STORAGE =           0.0000
       CONSTANT HEAD =           0.0000         CONSTANT HEAD =           0.0000
               WELLS =       1.0848E-04                 WELLS =       2.4000E-04

            TOTAL IN =       1.0848E-04              TOTAL IN =       2.4000E-04

          OUT:                                     OUT:
          ----                                     ----
             STORAGE =           0.0000               STORAGE =           0.0000
       CONSTANT HEAD =       1.0848E-04         CONSTANT HEAD =       2.4000E-04
               WELLS =           0.0000                 WELLS =           0.0000

           TOTAL OUT =       1.0848E-04             TOTAL OUT =       2.4000E-04

            IN - OUT =           0.0000              IN - OUT =      -1.4552E-11

 PERCENT DISCREPANCY =           0.00     PERCENT DISCREPANCY =           0.00






         TIME SUMMARY AT END OF TIME STEP    1 IN STRESS PERIOD   31
                    SECONDS     MINUTES      HOURS       DAYS        YEARS
                    -----------------------------------------------------------
   TIME STEP LENGTH  1259.7      20.995     0.34992     1.45800E-02 3.99179E-05
 STRESS PERIOD TIME  1259.7      20.995     0.34992     1.45800E-02 3.99179E-05
         TOTAL TIME  39051.      650.85      10.848     0.45198     1.23745E-03
1
1
                            STRESS PERIOD NO.   32, LENGTH =  0.1458000E-01
                            -----------------------------------------------

                              NUMBER OF TIME STEPS =     1

                               MULTIPLIER FOR DELT =     1.000

                            INITIAL TIME STEP SIZE =  0.1458000E-01

 WELL NO.  LAYER   ROW   COL   STRESS RATE         
 --------------------------------------------------
      1      1      1      1      0.2400E-03

      1 WELL 
 
 SOLVING FOR HEAD 

 OUTPUT CONTROL FOR STRESS PERIOD   32   TIME STEP    1
    SAVE HEAD FOR ALL LAYERS
    SAVE BUDGET
 UBDSV1 SAVING "         STORAGE" ON UNIT  31 AT TIME STEP  1, STRESS PERIOD  32
 UBDSV2 SAVING "   CONSTANT HEAD" ON UNIT  31 AT TIME STEP  1, STRESS PERIOD  32
 UBDSV1 SAVING "FLOW RIGHT FACE " ON UNIT  31 AT TIME STEP  1, STRESS PERIOD  32
 UBDSV4 SAVING "           WELLS" ON UNIT  31 AT TIME STEP  1, STRESS PERIOD  32

 SAVING SATURATED THICKNESS AND FLOW TERMS ON UNIT  333 FOR MT3DMS
 BY THE LINK-MT3DMS PACKAGE V7 AT TIME STEP    1, STRESS PERIOD   32


 HEAD WILL BE SAVED ON UNIT   30 AT END OF TIME STEP    1, STRESS PERIOD   32
1
  VOLUMETRIC BUDGET FOR ENTIRE MODEL AT END OF TIME STEP    1, STRESS PERIOD  32
  ------------------------------------------------------------------------------

     CUMULATIVE VOLUMES      L**3       RATES FOR THIS TIME STEP      L**3/T
     ------------------                 ------------------------

           IN:                                      IN:
           ---                                      ---
             STORAGE =           0.0000               STORAGE =           0.0000
       CONSTANT HEAD =           0.0000         CONSTANT HEAD =           0.0000
               WELLS =       1.1197E-04                 WELLS =       2.4000E-04

            TOTAL IN =       1.1197E-04              TOTAL IN =       2.4000E-04

          OUT:                                     OUT:
          ----                                     ----
             STORAGE =           0.0000               STORAGE =           0.0000
       CONSTANT HEAD =       1.1197E-04         CONSTANT HEAD =       2.4000E-04
               WELLS =           0.0000                 WELLS =           0.0000

           TOTAL OUT =       1.1197E-04             TOTAL OUT =       2.4000E-04

            IN - OUT =           0.0000              IN - OUT =      -1.4552E-11

 PERCENT DISCREPANCY =           0.00     PERCENT DISCREPANCY =           0.00






         TIME SUMMARY AT END OF TIME STEP    1 IN STRESS PERIOD   32
                    SECONDS     MINUTES      HOURS       DAYS        YEARS
                    -----------------------------------------------------------
   TIME STEP LENGTH  1259.7      20.995     0.34992     1.45800E-02 3.99179E-05
 STRESS PERIOD TIME  1259.7      20.995     0.34992     1.45800E-02 3.99179E-05
         TOTAL TIME  40311.      671.85      11.197     0.46656     1.27737E-03
1
1
                            STRESS PERIOD NO.   33, LENGTH =  0.1458000E-01
                            -----------------------------------------------

                              NUMBER OF TIME STEPS =     1

                               MULTIPLIER FOR DELT =     1.000

                            INITIAL TIME STEP SIZE =  0.1458000E-01

 WELL NO.  LAYER   ROW   COL   STRESS RATE         
 --------------------------------------------------
      1      1      1      1      0.2400E-03

      1 WELL 
 
 SOLVING FOR HEAD 

 OUTPUT CONTROL FOR STRESS PERIOD   33   TIME STEP    1
    SAVE HEAD FOR ALL LAYERS
    SAVE BUDGET
 UBDSV1 SAVING "         STORAGE" ON UNIT  31 AT TIME STEP  1, STRESS PERIOD  33
 UBDSV2 SAVING "   CONSTANT HEAD" ON UNIT  31 AT TIME STEP  1, STRESS PERIOD  33
 UBDSV1 SAVING "FLOW RIGHT FACE " ON UNIT  31 AT TIME STEP  1, STRESS PERIOD  33
 UBDSV4 SAVING "           WELLS" ON UNIT  31 AT TIME STEP  1, STRESS PERIOD  33

 SAVING SATURATED THICKNESS AND FLOW TERMS ON UNIT  333 FOR MT3DMS
 BY THE LINK-MT3DMS PACKAGE V7 AT TIME STEP    1, STRESS PERIOD   33


 HEAD WILL BE SAVED ON UNIT   30 AT END OF TIME STEP    1, STRESS PERIOD   33
1
  VOLUMETRIC BUDGET FOR ENTIRE MODEL AT END OF TIME STEP    1, STRESS PERIOD  33
  ------------------------------------------------------------------------------

     CUMULATIVE VOLUMES      L**3       RATES FOR THIS TIME STEP      L**3/T
     ------------------                 ------------------------

           IN:                                      IN:
           ---                                      ---
             STORAGE =           0.0000               STORAGE =           0.0000
       CONSTANT HEAD =           0.0000         CONSTANT HEAD =           0.0000
               WELLS =       1.1547E-04                 WELLS =       2.4000E-04

            TOTAL IN =       1.1547E-04              TOTAL IN =       2.4000E-04

          OUT:                                     OUT:
          ----                                     ----
             STORAGE =           0.0000               STORAGE =           0.0000
       CONSTANT HEAD =       1.1547E-04         CONSTANT HEAD =       2.4000E-04
               WELLS =           0.0000                 WELLS =           0.0000

           TOTAL OUT =       1.1547E-04             TOTAL OUT =       2.4000E-04

            IN - OUT =           0.0000              IN - OUT =      -1.4552E-11

 PERCENT DISCREPANCY =           0.00     PERCENT DISCREPANCY =           0.00






         TIME SUMMARY AT END OF TIME STEP    1 IN STRESS PERIOD   33
                    SECONDS     MINUTES      HOURS       DAYS        YEARS
                    -----------------------------------------------------------
   TIME STEP LENGTH  1259.7      20.995     0.34992     1.45800E-02 3.99179E-05
 STRESS PERIOD TIME  1259.7      20.995     0.34992     1.45800E-02 3.99179E-05
         TOTAL TIME  41571.      692.84      11.547     0.48114     1.31729E-03
1
1
                            STRESS PERIOD NO.   34, LENGTH =  0.1458000E-01
                            -----------------------------------------------

                              NUMBER OF TIME STEPS =     1

                               MULTIPLIER FOR DELT =     1.000

                            INITIAL TIME STEP SIZE =  0.1458000E-01

 WELL NO.  LAYER   ROW   COL   STRESS RATE         
 --------------------------------------------------
      1      1      1      1      0.2400E-03

      1 WELL 
 
 SOLVING FOR HEAD 

 OUTPUT CONTROL FOR STRESS PERIOD   34   TIME STEP    1
    SAVE HEAD FOR ALL LAYERS
    SAVE BUDGET
 UBDSV1 SAVING "         STORAGE" ON UNIT  31 AT TIME STEP  1, STRESS PERIOD  34
 UBDSV2 SAVING "   CONSTANT HEAD" ON UNIT  31 AT TIME STEP  1, STRESS PERIOD  34
 UBDSV1 SAVING "FLOW RIGHT FACE " ON UNIT  31 AT TIME STEP  1, STRESS PERIOD  34
 UBDSV4 SAVING "           WELLS" ON UNIT  31 AT TIME STEP  1, STRESS PERIOD  34

 SAVING SATURATED THICKNESS AND FLOW TERMS ON UNIT  333 FOR MT3DMS
 BY THE LINK-MT3DMS PACKAGE V7 AT TIME STEP    1, STRESS PERIOD   34


 HEAD WILL BE SAVED ON UNIT   30 AT END OF TIME STEP    1, STRESS PERIOD   34
1
  VOLUMETRIC BUDGET FOR ENTIRE MODEL AT END OF TIME STEP    1, STRESS PERIOD  34
  ------------------------------------------------------------------------------

     CUMULATIVE VOLUMES      L**3       RATES FOR THIS TIME STEP      L**3/T
     ------------------                 ------------------------

           IN:                                      IN:
           ---                                      ---
             STORAGE =           0.0000               STORAGE =           0.0000
       CONSTANT HEAD =           0.0000         CONSTANT HEAD =           0.0000
               WELLS =       1.1897E-04                 WELLS =       2.4000E-04

            TOTAL IN =       1.1897E-04              TOTAL IN =       2.4000E-04

          OUT:                                     OUT:
          ----                                     ----
             STORAGE =           0.0000               STORAGE =           0.0000
       CONSTANT HEAD =       1.1897E-04         CONSTANT HEAD =       2.4000E-04
               WELLS =           0.0000                 WELLS =           0.0000

           TOTAL OUT =       1.1897E-04             TOTAL OUT =       2.4000E-04

            IN - OUT =           0.0000              IN - OUT =      -1.4552E-11

 PERCENT DISCREPANCY =           0.00     PERCENT DISCREPANCY =           0.00






         TIME SUMMARY AT END OF TIME STEP    1 IN STRESS PERIOD   34
                    SECONDS     MINUTES      HOURS       DAYS        YEARS
                    -----------------------------------------------------------
   TIME STEP LENGTH  1259.7      20.995     0.34992     1.45800E-02 3.99179E-05
 STRESS PERIOD TIME  1259.7      20.995     0.34992     1.45800E-02 3.99179E-05
         TOTAL TIME  42830.      713.84      11.897     0.49572     1.35721E-03
1
1
                            STRESS PERIOD NO.   35, LENGTH =  0.1458000E-01
                            -----------------------------------------------

                              NUMBER OF TIME STEPS =     1

                               MULTIPLIER FOR DELT =     1.000

                            INITIAL TIME STEP SIZE =  0.1458000E-01

 WELL NO.  LAYER   ROW   COL   STRESS RATE         
 --------------------------------------------------
      1      1      1      1      0.2400E-03

      1 WELL 
 
 SOLVING FOR HEAD 

 OUTPUT CONTROL FOR STRESS PERIOD   35   TIME STEP    1
    SAVE HEAD FOR ALL LAYERS
    SAVE BUDGET
 UBDSV1 SAVING "         STORAGE" ON UNIT  31 AT TIME STEP  1, STRESS PERIOD  35
 UBDSV2 SAVING "   CONSTANT HEAD" ON UNIT  31 AT TIME STEP  1, STRESS PERIOD  35
 UBDSV1 SAVING "FLOW RIGHT FACE " ON UNIT  31 AT TIME STEP  1, STRESS PERIOD  35
 UBDSV4 SAVING "           WELLS" ON UNIT  31 AT TIME STEP  1, STRESS PERIOD  35

 SAVING SATURATED THICKNESS AND FLOW TERMS ON UNIT  333 FOR MT3DMS
 BY THE LINK-MT3DMS PACKAGE V7 AT TIME STEP    1, STRESS PERIOD   35


 HEAD WILL BE SAVED ON UNIT   30 AT END OF TIME STEP    1, STRESS PERIOD   35
1
  VOLUMETRIC BUDGET FOR ENTIRE MODEL AT END OF TIME STEP    1, STRESS PERIOD  35
  ------------------------------------------------------------------------------

     CUMULATIVE VOLUMES      L**3       RATES FOR THIS TIME STEP      L**3/T
     ------------------                 ------------------------

           IN:                                      IN:
           ---                                      ---
             STORAGE =           0.0000               STORAGE =           0.0000
       CONSTANT HEAD =           0.0000         CONSTANT HEAD =           0.0000
               WELLS =       1.2247E-04                 WELLS =       2.4000E-04

            TOTAL IN =       1.2247E-04              TOTAL IN =       2.4000E-04

          OUT:                                     OUT:
          ----                                     ----
             STORAGE =           0.0000               STORAGE =           0.0000
       CONSTANT HEAD =       1.2247E-04         CONSTANT HEAD =       2.4000E-04
               WELLS =           0.0000                 WELLS =           0.0000

           TOTAL OUT =       1.2247E-04             TOTAL OUT =       2.4000E-04

            IN - OUT =           0.0000              IN - OUT =      -1.4552E-11

 PERCENT DISCREPANCY =           0.00     PERCENT DISCREPANCY =           0.00






         TIME SUMMARY AT END OF TIME STEP    1 IN STRESS PERIOD   35
                    SECONDS     MINUTES      HOURS       DAYS        YEARS
                    -----------------------------------------------------------
   TIME STEP LENGTH  1259.7      20.995     0.34992     1.45800E-02 3.99179E-05
 STRESS PERIOD TIME  1259.7      20.995     0.34992     1.45800E-02 3.99179E-05
         TOTAL TIME  44090.      734.83      12.247     0.51030     1.39713E-03
1
1
                            STRESS PERIOD NO.   36, LENGTH =  0.1458000E-01
                            -----------------------------------------------

                              NUMBER OF TIME STEPS =     1

                               MULTIPLIER FOR DELT =     1.000

                            INITIAL TIME STEP SIZE =  0.1458000E-01

 WELL NO.  LAYER   ROW   COL   STRESS RATE         
 --------------------------------------------------
      1      1      1      1      0.2400E-03

      1 WELL 
 
 SOLVING FOR HEAD 

 OUTPUT CONTROL FOR STRESS PERIOD   36   TIME STEP    1
    SAVE HEAD FOR ALL LAYERS
    SAVE BUDGET
 UBDSV1 SAVING "         STORAGE" ON UNIT  31 AT TIME STEP  1, STRESS PERIOD  36
 UBDSV2 SAVING "   CONSTANT HEAD" ON UNIT  31 AT TIME STEP  1, STRESS PERIOD  36
 UBDSV1 SAVING "FLOW RIGHT FACE " ON UNIT  31 AT TIME STEP  1, STRESS PERIOD  36
 UBDSV4 SAVING "           WELLS" ON UNIT  31 AT TIME STEP  1, STRESS PERIOD  36

 SAVING SATURATED THICKNESS AND FLOW TERMS ON UNIT  333 FOR MT3DMS
 BY THE LINK-MT3DMS PACKAGE V7 AT TIME STEP    1, STRESS PERIOD   36


 HEAD WILL BE SAVED ON UNIT   30 AT END OF TIME STEP    1, STRESS PERIOD   36
1
  VOLUMETRIC BUDGET FOR ENTIRE MODEL AT END OF TIME STEP    1, STRESS PERIOD  36
  ------------------------------------------------------------------------------

     CUMULATIVE VOLUMES      L**3       RATES FOR THIS TIME STEP      L**3/T
     ------------------                 ------------------------

           IN:                                      IN:
           ---                                      ---
             STORAGE =           0.0000               STORAGE =           0.0000
       CONSTANT HEAD =           0.0000         CONSTANT HEAD =           0.0000
               WELLS =       1.2597E-04                 WELLS =       2.4000E-04

            TOTAL IN =       1.2597E-04              TOTAL IN =       2.4000E-04

          OUT:                                     OUT:
          ----                                     ----
             STORAGE =           0.0000               STORAGE =           0.0000
       CONSTANT HEAD =       1.2597E-04         CONSTANT HEAD =       2.4000E-04
               WELLS =           0.0000                 WELLS =           0.0000

           TOTAL OUT =       1.2597E-04             TOTAL OUT =       2.4000E-04

            IN - OUT =           0.0000              IN - OUT =      -1.4552E-11

 PERCENT DISCREPANCY =           0.00     PERCENT DISCREPANCY =           0.00






         TIME SUMMARY AT END OF TIME STEP    1 IN STRESS PERIOD   36
                    SECONDS     MINUTES      HOURS       DAYS        YEARS
                    -----------------------------------------------------------
   TIME STEP LENGTH  1259.7      20.995     0.34992     1.45800E-02 3.99179E-05
 STRESS PERIOD TIME  1259.7      20.995     0.34992     1.45800E-02 3.99179E-05
         TOTAL TIME  45350.      755.83      12.597     0.52488     1.43704E-03
1
1
                            STRESS PERIOD NO.   37, LENGTH =  0.1458000E-01
                            -----------------------------------------------

                              NUMBER OF TIME STEPS =     1

                               MULTIPLIER FOR DELT =     1.000

                            INITIAL TIME STEP SIZE =  0.1458000E-01

 WELL NO.  LAYER   ROW   COL   STRESS RATE         
 --------------------------------------------------
      1      1      1      1      0.2400E-03

      1 WELL 
 
 SOLVING FOR HEAD 

 OUTPUT CONTROL FOR STRESS PERIOD   37   TIME STEP    1
    SAVE HEAD FOR ALL LAYERS
    SAVE BUDGET
 UBDSV1 SAVING "         STORAGE" ON UNIT  31 AT TIME STEP  1, STRESS PERIOD  37
 UBDSV2 SAVING "   CONSTANT HEAD" ON UNIT  31 AT TIME STEP  1, STRESS PERIOD  37
 UBDSV1 SAVING "FLOW RIGHT FACE " ON UNIT  31 AT TIME STEP  1, STRESS PERIOD  37
 UBDSV4 SAVING "           WELLS" ON UNIT  31 AT TIME STEP  1, STRESS PERIOD  37

 SAVING SATURATED THICKNESS AND FLOW TERMS ON UNIT  333 FOR MT3DMS
 BY THE LINK-MT3DMS PACKAGE V7 AT TIME STEP    1, STRESS PERIOD   37


 HEAD WILL BE SAVED ON UNIT   30 AT END OF TIME STEP    1, STRESS PERIOD   37
1
  VOLUMETRIC BUDGET FOR ENTIRE MODEL AT END OF TIME STEP    1, STRESS PERIOD  37
  ------------------------------------------------------------------------------

     CUMULATIVE VOLUMES      L**3       RATES FOR THIS TIME STEP      L**3/T
     ------------------                 ------------------------

           IN:                                      IN:
           ---                                      ---
             STORAGE =           0.0000               STORAGE =           0.0000
       CONSTANT HEAD =           0.0000         CONSTANT HEAD =           0.0000
               WELLS =       1.2947E-04                 WELLS =       2.4000E-04

            TOTAL IN =       1.2947E-04              TOTAL IN =       2.4000E-04

          OUT:                                     OUT:
          ----                                     ----
             STORAGE =           0.0000               STORAGE =           0.0000
       CONSTANT HEAD =       1.2947E-04         CONSTANT HEAD =       2.4000E-04
               WELLS =           0.0000                 WELLS =           0.0000

           TOTAL OUT =       1.2947E-04             TOTAL OUT =       2.4000E-04

            IN - OUT =           0.0000              IN - OUT =      -1.4552E-11

 PERCENT DISCREPANCY =           0.00     PERCENT DISCREPANCY =           0.00






         TIME SUMMARY AT END OF TIME STEP    1 IN STRESS PERIOD   37
                    SECONDS     MINUTES      HOURS       DAYS        YEARS
                    -----------------------------------------------------------
   TIME STEP LENGTH  1259.7      20.995     0.34992     1.45800E-02 3.99179E-05
 STRESS PERIOD TIME  1259.7      20.995     0.34992     1.45800E-02 3.99179E-05
         TOTAL TIME  46609.      776.82      12.947     0.53946     1.47696E-03
1
1
                            STRESS PERIOD NO.   38, LENGTH =  0.1458000E-01
                            -----------------------------------------------

                              NUMBER OF TIME STEPS =     1

                               MULTIPLIER FOR DELT =     1.000

                            INITIAL TIME STEP SIZE =  0.1458000E-01

 WELL NO.  LAYER   ROW   COL   STRESS RATE         
 --------------------------------------------------
      1      1      1      1      0.2400E-03

      1 WELL 
 
 SOLVING FOR HEAD 

 OUTPUT CONTROL FOR STRESS PERIOD   38   TIME STEP    1
    SAVE HEAD FOR ALL LAYERS
    SAVE BUDGET
 UBDSV1 SAVING "         STORAGE" ON UNIT  31 AT TIME STEP  1, STRESS PERIOD  38
 UBDSV2 SAVING "   CONSTANT HEAD" ON UNIT  31 AT TIME STEP  1, STRESS PERIOD  38
 UBDSV1 SAVING "FLOW RIGHT FACE " ON UNIT  31 AT TIME STEP  1, STRESS PERIOD  38
 UBDSV4 SAVING "           WELLS" ON UNIT  31 AT TIME STEP  1, STRESS PERIOD  38

 SAVING SATURATED THICKNESS AND FLOW TERMS ON UNIT  333 FOR MT3DMS
 BY THE LINK-MT3DMS PACKAGE V7 AT TIME STEP    1, STRESS PERIOD   38


 HEAD WILL BE SAVED ON UNIT   30 AT END OF TIME STEP    1, STRESS PERIOD   38
1
  VOLUMETRIC BUDGET FOR ENTIRE MODEL AT END OF TIME STEP    1, STRESS PERIOD  38
  ------------------------------------------------------------------------------

     CUMULATIVE VOLUMES      L**3       RATES FOR THIS TIME STEP      L**3/T
     ------------------                 ------------------------

           IN:                                      IN:
           ---                                      ---
             STORAGE =           0.0000               STORAGE =           0.0000
       CONSTANT HEAD =           0.0000         CONSTANT HEAD =           0.0000
               WELLS =       1.3297E-04                 WELLS =       2.4000E-04

            TOTAL IN =       1.3297E-04              TOTAL IN =       2.4000E-04

          OUT:                                     OUT:
          ----                                     ----
             STORAGE =           0.0000               STORAGE =           0.0000
       CONSTANT HEAD =       1.3297E-04         CONSTANT HEAD =       2.4000E-04
               WELLS =           0.0000                 WELLS =           0.0000

           TOTAL OUT =       1.3297E-04             TOTAL OUT =       2.4000E-04

            IN - OUT =           0.0000              IN - OUT =      -1.4552E-11

 PERCENT DISCREPANCY =           0.00     PERCENT DISCREPANCY =           0.00






         TIME SUMMARY AT END OF TIME STEP    1 IN STRESS PERIOD   38
                    SECONDS     MINUTES      HOURS       DAYS        YEARS
                    -----------------------------------------------------------
   TIME STEP LENGTH  1259.7      20.995     0.34992     1.45800E-02 3.99179E-05
 STRESS PERIOD TIME  1259.7      20.995     0.34992     1.45800E-02 3.99179E-05
         TOTAL TIME  47869.      797.82      13.297     0.55404     1.51688E-03
1
1
                            STRESS PERIOD NO.   39, LENGTH =  0.1458000E-01
                            -----------------------------------------------

                              NUMBER OF TIME STEPS =     1

                               MULTIPLIER FOR DELT =     1.000

                            INITIAL TIME STEP SIZE =  0.1458000E-01

 WELL NO.  LAYER   ROW   COL   STRESS RATE         
 --------------------------------------------------
      1      1      1      1      0.2400E-03

      1 WELL 
 
 SOLVING FOR HEAD 

 OUTPUT CONTROL FOR STRESS PERIOD   39   TIME STEP    1
    SAVE HEAD FOR ALL LAYERS
    SAVE BUDGET
 UBDSV1 SAVING "         STORAGE" ON UNIT  31 AT TIME STEP  1, STRESS PERIOD  39
 UBDSV2 SAVING "   CONSTANT HEAD" ON UNIT  31 AT TIME STEP  1, STRESS PERIOD  39
 UBDSV1 SAVING "FLOW RIGHT FACE " ON UNIT  31 AT TIME STEP  1, STRESS PERIOD  39
 UBDSV4 SAVING "           WELLS" ON UNIT  31 AT TIME STEP  1, STRESS PERIOD  39

 SAVING SATURATED THICKNESS AND FLOW TERMS ON UNIT  333 FOR MT3DMS
 BY THE LINK-MT3DMS PACKAGE V7 AT TIME STEP    1, STRESS PERIOD   39


 HEAD WILL BE SAVED ON UNIT   30 AT END OF TIME STEP    1, STRESS PERIOD   39
1
  VOLUMETRIC BUDGET FOR ENTIRE MODEL AT END OF TIME STEP    1, STRESS PERIOD  39
  ------------------------------------------------------------------------------

     CUMULATIVE VOLUMES      L**3       RATES FOR THIS TIME STEP      L**3/T
     ------------------                 ------------------------

           IN:                                      IN:
           ---                                      ---
             STORAGE =           0.0000               STORAGE =           0.0000
       CONSTANT HEAD =           0.0000         CONSTANT HEAD =           0.0000
               WELLS =       1.3647E-04                 WELLS =       2.4000E-04

            TOTAL IN =       1.3647E-04              TOTAL IN =       2.4000E-04

          OUT:                                     OUT:
          ----                                     ----
             STORAGE =           0.0000               STORAGE =           0.0000
       CONSTANT HEAD =       1.3647E-04         CONSTANT HEAD =       2.4000E-04
               WELLS =           0.0000                 WELLS =           0.0000

           TOTAL OUT =       1.3647E-04             TOTAL OUT =       2.4000E-04

            IN - OUT =           0.0000              IN - OUT =      -1.4552E-11

 PERCENT DISCREPANCY =           0.00     PERCENT DISCREPANCY =           0.00






         TIME SUMMARY AT END OF TIME STEP    1 IN STRESS PERIOD   39
                    SECONDS     MINUTES      HOURS       DAYS        YEARS
                    -----------------------------------------------------------
   TIME STEP LENGTH  1259.7      20.995     0.34992     1.45800E-02 3.99179E-05
 STRESS PERIOD TIME  1259.7      20.995     0.34992     1.45800E-02 3.99179E-05
         TOTAL TIME  49129.      818.81      13.647     0.56862     1.55680E-03
1
1
                            STRESS PERIOD NO.   40, LENGTH =  0.1458000E-01
                            -----------------------------------------------

                              NUMBER OF TIME STEPS =     1

                               MULTIPLIER FOR DELT =     1.000

                            INITIAL TIME STEP SIZE =  0.1458000E-01

 WELL NO.  LAYER   ROW   COL   STRESS RATE         
 --------------------------------------------------
      1      1      1      1      0.2400E-03

      1 WELL 
 
 SOLVING FOR HEAD 

 OUTPUT CONTROL FOR STRESS PERIOD   40   TIME STEP    1
    SAVE HEAD FOR ALL LAYERS
    SAVE BUDGET
 UBDSV1 SAVING "         STORAGE" ON UNIT  31 AT TIME STEP  1, STRESS PERIOD  40
 UBDSV2 SAVING "   CONSTANT HEAD" ON UNIT  31 AT TIME STEP  1, STRESS PERIOD  40
 UBDSV1 SAVING "FLOW RIGHT FACE " ON UNIT  31 AT TIME STEP  1, STRESS PERIOD  40
 UBDSV4 SAVING "           WELLS" ON UNIT  31 AT TIME STEP  1, STRESS PERIOD  40

 SAVING SATURATED THICKNESS AND FLOW TERMS ON UNIT  333 FOR MT3DMS
 BY THE LINK-MT3DMS PACKAGE V7 AT TIME STEP    1, STRESS PERIOD   40


 HEAD WILL BE SAVED ON UNIT   30 AT END OF TIME STEP    1, STRESS PERIOD   40
1
  VOLUMETRIC BUDGET FOR ENTIRE MODEL AT END OF TIME STEP    1, STRESS PERIOD  40
  ------------------------------------------------------------------------------

     CUMULATIVE VOLUMES      L**3       RATES FOR THIS TIME STEP      L**3/T
     ------------------                 ------------------------

           IN:                                      IN:
           ---                                      ---
             STORAGE =           0.0000               STORAGE =           0.0000
       CONSTANT HEAD =           0.0000         CONSTANT HEAD =           0.0000
               WELLS =       1.3997E-04                 WELLS =       2.4000E-04

            TOTAL IN =       1.3997E-04              TOTAL IN =       2.4000E-04

          OUT:                                     OUT:
          ----                                     ----
             STORAGE =           0.0000               STORAGE =           0.0000
       CONSTANT HEAD =       1.3997E-04         CONSTANT HEAD =       2.4000E-04
               WELLS =           0.0000                 WELLS =           0.0000

           TOTAL OUT =       1.3997E-04             TOTAL OUT =       2.4000E-04

            IN - OUT =           0.0000              IN - OUT =      -1.4552E-11

 PERCENT DISCREPANCY =           0.00     PERCENT DISCREPANCY =           0.00






         TIME SUMMARY AT END OF TIME STEP    1 IN STRESS PERIOD   40
                    SECONDS     MINUTES      HOURS       DAYS        YEARS
                    -----------------------------------------------------------
   TIME STEP LENGTH  1259.7      20.995     0.34992     1.45800E-02 3.99179E-05
 STRESS PERIOD TIME  1259.7      20.995     0.34992     1.45800E-02 3.99179E-05
         TOTAL TIME  50388.      839.81      13.997     0.58320     1.59672E-03
1
1
                            STRESS PERIOD NO.   41, LENGTH =  0.1458000E-01
                            -----------------------------------------------

                              NUMBER OF TIME STEPS =     1

                               MULTIPLIER FOR DELT =     1.000

                            INITIAL TIME STEP SIZE =  0.1458000E-01

 WELL NO.  LAYER   ROW   COL   STRESS RATE         
 --------------------------------------------------
      1      1      1      1      0.2400E-03

      1 WELL 
 
 SOLVING FOR HEAD 

 OUTPUT CONTROL FOR STRESS PERIOD   41   TIME STEP    1
    SAVE HEAD FOR ALL LAYERS
    SAVE BUDGET
 UBDSV1 SAVING "         STORAGE" ON UNIT  31 AT TIME STEP  1, STRESS PERIOD  41
 UBDSV2 SAVING "   CONSTANT HEAD" ON UNIT  31 AT TIME STEP  1, STRESS PERIOD  41
 UBDSV1 SAVING "FLOW RIGHT FACE " ON UNIT  31 AT TIME STEP  1, STRESS PERIOD  41
 UBDSV4 SAVING "           WELLS" ON UNIT  31 AT TIME STEP  1, STRESS PERIOD  41

 SAVING SATURATED THICKNESS AND FLOW TERMS ON UNIT  333 FOR MT3DMS
 BY THE LINK-MT3DMS PACKAGE V7 AT TIME STEP    1, STRESS PERIOD   41


 HEAD WILL BE SAVED ON UNIT   30 AT END OF TIME STEP    1, STRESS PERIOD   41
1
  VOLUMETRIC BUDGET FOR ENTIRE MODEL AT END OF TIME STEP    1, STRESS PERIOD  41
  ------------------------------------------------------------------------------

     CUMULATIVE VOLUMES      L**3       RATES FOR THIS TIME STEP      L**3/T
     ------------------                 ------------------------

           IN:                                      IN:
           ---                                      ---
             STORAGE =           0.0000               STORAGE =           0.0000
       CONSTANT HEAD =           0.0000         CONSTANT HEAD =           0.0000
               WELLS =       1.4347E-04                 WELLS =       2.4000E-04

            TOTAL IN =       1.4347E-04              TOTAL IN =       2.4000E-04

          OUT:                                     OUT:
          ----                                     ----
             STORAGE =           0.0000               STORAGE =           0.0000
       CONSTANT HEAD =       1.4347E-04         CONSTANT HEAD =       2.4000E-04
               WELLS =           0.0000                 WELLS =           0.0000

           TOTAL OUT =       1.4347E-04             TOTAL OUT =       2.4000E-04

            IN - OUT =           0.0000              IN - OUT =      -1.4552E-11

 PERCENT DISCREPANCY =           0.00     PERCENT DISCREPANCY =           0.00






         TIME SUMMARY AT END OF TIME STEP    1 IN STRESS PERIOD   41
                    SECONDS     MINUTES      HOURS       DAYS        YEARS
                    -----------------------------------------------------------
   TIME STEP LENGTH  1259.7      20.995     0.34992     1.45800E-02 3.99179E-05
 STRESS PERIOD TIME  1259.7      20.995     0.34992     1.45800E-02 3.99179E-05
         TOTAL TIME  51648.      860.80      14.347     0.59778     1.63663E-03
1
1
                            STRESS PERIOD NO.   42, LENGTH =  0.1458000E-01
                            -----------------------------------------------

                              NUMBER OF TIME STEPS =     1

                               MULTIPLIER FOR DELT =     1.000

                            INITIAL TIME STEP SIZE =  0.1458000E-01

 WELL NO.  LAYER   ROW   COL   STRESS RATE         
 --------------------------------------------------
      1      1      1      1      0.2400E-03

      1 WELL 
 
 SOLVING FOR HEAD 

 OUTPUT CONTROL FOR STRESS PERIOD   42   TIME STEP    1
    SAVE HEAD FOR ALL LAYERS
    SAVE BUDGET
 UBDSV1 SAVING "         STORAGE" ON UNIT  31 AT TIME STEP  1, STRESS PERIOD  42
 UBDSV2 SAVING "   CONSTANT HEAD" ON UNIT  31 AT TIME STEP  1, STRESS PERIOD  42
 UBDSV1 SAVING "FLOW RIGHT FACE " ON UNIT  31 AT TIME STEP  1, STRESS PERIOD  42
 UBDSV4 SAVING "           WELLS" ON UNIT  31 AT TIME STEP  1, STRESS PERIOD  42

 SAVING SATURATED THICKNESS AND FLOW TERMS ON UNIT  333 FOR MT3DMS
 BY THE LINK-MT3DMS PACKAGE V7 AT TIME STEP    1, STRESS PERIOD   42


 HEAD WILL BE SAVED ON UNIT   30 AT END OF TIME STEP    1, STRESS PERIOD   42
1
  VOLUMETRIC BUDGET FOR ENTIRE MODEL AT END OF TIME STEP    1, STRESS PERIOD  42
  ------------------------------------------------------------------------------

     CUMULATIVE VOLUMES      L**3       RATES FOR THIS TIME STEP      L**3/T
     ------------------                 ------------------------

           IN:                                      IN:
           ---                                      ---
             STORAGE =           0.0000               STORAGE =           0.0000
       CONSTANT HEAD =           0.0000         CONSTANT HEAD =           0.0000
               WELLS =       1.4697E-04                 WELLS =       2.4000E-04

            TOTAL IN =       1.4697E-04              TOTAL IN =       2.4000E-04

          OUT:                                     OUT:
          ----                                     ----
             STORAGE =           0.0000               STORAGE =           0.0000
       CONSTANT HEAD =       1.4697E-04         CONSTANT HEAD =       2.4000E-04
               WELLS =           0.0000                 WELLS =           0.0000

           TOTAL OUT =       1.4697E-04             TOTAL OUT =       2.4000E-04

            IN - OUT =           0.0000              IN - OUT =      -1.4552E-11

 PERCENT DISCREPANCY =           0.00     PERCENT DISCREPANCY =           0.00






         TIME SUMMARY AT END OF TIME STEP    1 IN STRESS PERIOD   42
                    SECONDS     MINUTES      HOURS       DAYS        YEARS
                    -----------------------------------------------------------
   TIME STEP LENGTH  1259.7      20.995     0.34992     1.45800E-02 3.99179E-05
 STRESS PERIOD TIME  1259.7      20.995     0.34992     1.45800E-02 3.99179E-05
         TOTAL TIME  52908.      881.80      14.697     0.61236     1.67655E-03
1
1
                            STRESS PERIOD NO.   43, LENGTH =  0.1458000E-01
                            -----------------------------------------------

                              NUMBER OF TIME STEPS =     1

                               MULTIPLIER FOR DELT =     1.000

                            INITIAL TIME STEP SIZE =  0.1458000E-01

 WELL NO.  LAYER   ROW   COL   STRESS RATE         
 --------------------------------------------------
      1      1      1      1      0.2400E-03

      1 WELL 
 
 SOLVING FOR HEAD 

 OUTPUT CONTROL FOR STRESS PERIOD   43   TIME STEP    1
    SAVE HEAD FOR ALL LAYERS
    SAVE BUDGET
 UBDSV1 SAVING "         STORAGE" ON UNIT  31 AT TIME STEP  1, STRESS PERIOD  43
 UBDSV2 SAVING "   CONSTANT HEAD" ON UNIT  31 AT TIME STEP  1, STRESS PERIOD  43
 UBDSV1 SAVING "FLOW RIGHT FACE " ON UNIT  31 AT TIME STEP  1, STRESS PERIOD  43
 UBDSV4 SAVING "           WELLS" ON UNIT  31 AT TIME STEP  1, STRESS PERIOD  43

 SAVING SATURATED THICKNESS AND FLOW TERMS ON UNIT  333 FOR MT3DMS
 BY THE LINK-MT3DMS PACKAGE V7 AT TIME STEP    1, STRESS PERIOD   43


 HEAD WILL BE SAVED ON UNIT   30 AT END OF TIME STEP    1, STRESS PERIOD   43
1
  VOLUMETRIC BUDGET FOR ENTIRE MODEL AT END OF TIME STEP    1, STRESS PERIOD  43
  ------------------------------------------------------------------------------

     CUMULATIVE VOLUMES      L**3       RATES FOR THIS TIME STEP      L**3/T
     ------------------                 ------------------------

           IN:                                      IN:
           ---                                      ---
             STORAGE =           0.0000               STORAGE =           0.0000
       CONSTANT HEAD =           0.0000         CONSTANT HEAD =           0.0000
               WELLS =       1.5047E-04                 WELLS =       2.4000E-04

            TOTAL IN =       1.5047E-04              TOTAL IN =       2.4000E-04

          OUT:                                     OUT:
          ----                                     ----
             STORAGE =           0.0000               STORAGE =           0.0000
       CONSTANT HEAD =       1.5047E-04         CONSTANT HEAD =       2.4000E-04
               WELLS =           0.0000                 WELLS =           0.0000

           TOTAL OUT =       1.5047E-04             TOTAL OUT =       2.4000E-04

            IN - OUT =           0.0000              IN - OUT =      -1.4552E-11

 PERCENT DISCREPANCY =           0.00     PERCENT DISCREPANCY =           0.00






         TIME SUMMARY AT END OF TIME STEP    1 IN STRESS PERIOD   43
                    SECONDS     MINUTES      HOURS       DAYS        YEARS
                    -----------------------------------------------------------
   TIME STEP LENGTH  1259.7      20.995     0.34992     1.45800E-02 3.99179E-05
 STRESS PERIOD TIME  1259.7      20.995     0.34992     1.45800E-02 3.99179E-05
         TOTAL TIME  54168.      902.79      15.047     0.62694     1.71647E-03
1
1
                            STRESS PERIOD NO.   44, LENGTH =  0.1458000E-01
                            -----------------------------------------------

                              NUMBER OF TIME STEPS =     1

                               MULTIPLIER FOR DELT =     1.000

                            INITIAL TIME STEP SIZE =  0.1458000E-01

 WELL NO.  LAYER   ROW   COL   STRESS RATE         
 --------------------------------------------------
      1      1      1      1      0.2400E-03

      1 WELL 
 
 SOLVING FOR HEAD 

 OUTPUT CONTROL FOR STRESS PERIOD   44   TIME STEP    1
    SAVE HEAD FOR ALL LAYERS
    SAVE BUDGET
 UBDSV1 SAVING "         STORAGE" ON UNIT  31 AT TIME STEP  1, STRESS PERIOD  44
 UBDSV2 SAVING "   CONSTANT HEAD" ON UNIT  31 AT TIME STEP  1, STRESS PERIOD  44
 UBDSV1 SAVING "FLOW RIGHT FACE " ON UNIT  31 AT TIME STEP  1, STRESS PERIOD  44
 UBDSV4 SAVING "           WELLS" ON UNIT  31 AT TIME STEP  1, STRESS PERIOD  44

 SAVING SATURATED THICKNESS AND FLOW TERMS ON UNIT  333 FOR MT3DMS
 BY THE LINK-MT3DMS PACKAGE V7 AT TIME STEP    1, STRESS PERIOD   44


 HEAD WILL BE SAVED ON UNIT   30 AT END OF TIME STEP    1, STRESS PERIOD   44
1
  VOLUMETRIC BUDGET FOR ENTIRE MODEL AT END OF TIME STEP    1, STRESS PERIOD  44
  ------------------------------------------------------------------------------

     CUMULATIVE VOLUMES      L**3       RATES FOR THIS TIME STEP      L**3/T
     ------------------                 ------------------------

           IN:                                      IN:
           ---                                      ---
             STORAGE =           0.0000               STORAGE =           0.0000
       CONSTANT HEAD =           0.0000         CONSTANT HEAD =           0.0000
               WELLS =       1.5396E-04                 WELLS =       2.4000E-04

            TOTAL IN =       1.5396E-04              TOTAL IN =       2.4000E-04

          OUT:                                     OUT:
          ----                                     ----
             STORAGE =           0.0000               STORAGE =           0.0000
       CONSTANT HEAD =       1.5396E-04         CONSTANT HEAD =       2.4000E-04
               WELLS =           0.0000                 WELLS =           0.0000

           TOTAL OUT =       1.5396E-04             TOTAL OUT =       2.4000E-04

            IN - OUT =           0.0000              IN - OUT =      -1.4552E-11

 PERCENT DISCREPANCY =           0.00     PERCENT DISCREPANCY =           0.00






         TIME SUMMARY AT END OF TIME STEP    1 IN STRESS PERIOD   44
                    SECONDS     MINUTES      HOURS       DAYS        YEARS
                    -----------------------------------------------------------
   TIME STEP LENGTH  1259.7      20.995     0.34992     1.45800E-02 3.99179E-05
 STRESS PERIOD TIME  1259.7      20.995     0.34992     1.45800E-02 3.99179E-05
         TOTAL TIME  55427.      923.79      15.396     0.64152     1.75639E-03
1
1
                            STRESS PERIOD NO.   45, LENGTH =  0.1458000E-01
                            -----------------------------------------------

                              NUMBER OF TIME STEPS =     1

                               MULTIPLIER FOR DELT =     1.000

                            INITIAL TIME STEP SIZE =  0.1458000E-01

 WELL NO.  LAYER   ROW   COL   STRESS RATE         
 --------------------------------------------------
      1      1      1      1      0.2400E-03

      1 WELL 
 
 SOLVING FOR HEAD 

 OUTPUT CONTROL FOR STRESS PERIOD   45   TIME STEP    1
    SAVE HEAD FOR ALL LAYERS
    SAVE BUDGET
 UBDSV1 SAVING "         STORAGE" ON UNIT  31 AT TIME STEP  1, STRESS PERIOD  45
 UBDSV2 SAVING "   CONSTANT HEAD" ON UNIT  31 AT TIME STEP  1, STRESS PERIOD  45
 UBDSV1 SAVING "FLOW RIGHT FACE " ON UNIT  31 AT TIME STEP  1, STRESS PERIOD  45
 UBDSV4 SAVING "           WELLS" ON UNIT  31 AT TIME STEP  1, STRESS PERIOD  45

 SAVING SATURATED THICKNESS AND FLOW TERMS ON UNIT  333 FOR MT3DMS
 BY THE LINK-MT3DMS PACKAGE V7 AT TIME STEP    1, STRESS PERIOD   45


 HEAD WILL BE SAVED ON UNIT   30 AT END OF TIME STEP    1, STRESS PERIOD   45
1
  VOLUMETRIC BUDGET FOR ENTIRE MODEL AT END OF TIME STEP    1, STRESS PERIOD  45
  ------------------------------------------------------------------------------

     CUMULATIVE VOLUMES      L**3       RATES FOR THIS TIME STEP      L**3/T
     ------------------                 ------------------------

           IN:                                      IN:
           ---                                      ---
             STORAGE =           0.0000               STORAGE =           0.0000
       CONSTANT HEAD =           0.0000         CONSTANT HEAD =           0.0000
               WELLS =       1.5746E-04                 WELLS =       2.4000E-04

            TOTAL IN =       1.5746E-04              TOTAL IN =       2.4000E-04

          OUT:                                     OUT:
          ----                                     ----
             STORAGE =           0.0000               STORAGE =           0.0000
       CONSTANT HEAD =       1.5746E-04         CONSTANT HEAD =       2.4000E-04
               WELLS =           0.0000                 WELLS =           0.0000

           TOTAL OUT =       1.5746E-04             TOTAL OUT =       2.4000E-04

            IN - OUT =           0.0000              IN - OUT =      -1.4552E-11

 PERCENT DISCREPANCY =           0.00     PERCENT DISCREPANCY =           0.00






         TIME SUMMARY AT END OF TIME STEP    1 IN STRESS PERIOD   45
                    SECONDS     MINUTES      HOURS       DAYS        YEARS
                    -----------------------------------------------------------
   TIME STEP LENGTH  1259.7      20.995     0.34992     1.45800E-02 3.99179E-05
 STRESS PERIOD TIME  1259.7      20.995     0.34992     1.45800E-02 3.99179E-05
         TOTAL TIME  56687.      944.78      15.746     0.65610     1.79630E-03
1
1
                            STRESS PERIOD NO.   46, LENGTH =  0.1458000E-01
                            -----------------------------------------------

                              NUMBER OF TIME STEPS =     1

                               MULTIPLIER FOR DELT =     1.000

                            INITIAL TIME STEP SIZE =  0.1458000E-01

 WELL NO.  LAYER   ROW   COL   STRESS RATE         
 --------------------------------------------------
      1      1      1      1      0.2400E-03

      1 WELL 
 
 SOLVING FOR HEAD 

 OUTPUT CONTROL FOR STRESS PERIOD   46   TIME STEP    1
    SAVE HEAD FOR ALL LAYERS
    SAVE BUDGET
 UBDSV1 SAVING "         STORAGE" ON UNIT  31 AT TIME STEP  1, STRESS PERIOD  46
 UBDSV2 SAVING "   CONSTANT HEAD" ON UNIT  31 AT TIME STEP  1, STRESS PERIOD  46
 UBDSV1 SAVING "FLOW RIGHT FACE " ON UNIT  31 AT TIME STEP  1, STRESS PERIOD  46
 UBDSV4 SAVING "           WELLS" ON UNIT  31 AT TIME STEP  1, STRESS PERIOD  46

 SAVING SATURATED THICKNESS AND FLOW TERMS ON UNIT  333 FOR MT3DMS
 BY THE LINK-MT3DMS PACKAGE V7 AT TIME STEP    1, STRESS PERIOD   46


 HEAD WILL BE SAVED ON UNIT   30 AT END OF TIME STEP    1, STRESS PERIOD   46
1
  VOLUMETRIC BUDGET FOR ENTIRE MODEL AT END OF TIME STEP    1, STRESS PERIOD  46
  ------------------------------------------------------------------------------

     CUMULATIVE VOLUMES      L**3       RATES FOR THIS TIME STEP      L**3/T
     ------------------                 ------------------------

           IN:                                      IN:
           ---                                      ---
             STORAGE =           0.0000               STORAGE =           0.0000
       CONSTANT HEAD =           0.0000         CONSTANT HEAD =           0.0000
               WELLS =       1.6096E-04                 WELLS =       2.4000E-04

            TOTAL IN =       1.6096E-04              TOTAL IN =       2.4000E-04

          OUT:                                     OUT:
          ----                                     ----
             STORAGE =           0.0000               STORAGE =           0.0000
       CONSTANT HEAD =       1.6096E-04         CONSTANT HEAD =       2.4000E-04
               WELLS =           0.0000                 WELLS =           0.0000

           TOTAL OUT =       1.6096E-04             TOTAL OUT =       2.4000E-04

            IN - OUT =           0.0000              IN - OUT =      -1.4552E-11

 PERCENT DISCREPANCY =           0.00     PERCENT DISCREPANCY =           0.00






         TIME SUMMARY AT END OF TIME STEP    1 IN STRESS PERIOD   46
                    SECONDS     MINUTES      HOURS       DAYS        YEARS
                    -----------------------------------------------------------
   TIME STEP LENGTH  1259.7      20.995     0.34992     1.45800E-02 3.99179E-05
 STRESS PERIOD TIME  1259.7      20.995     0.34992     1.45800E-02 3.99179E-05
         TOTAL TIME  57947.      965.78      16.096     0.67068     1.83622E-03
1
1
                            STRESS PERIOD NO.   47, LENGTH =  0.1458000E-01
                            -----------------------------------------------

                              NUMBER OF TIME STEPS =     1

                               MULTIPLIER FOR DELT =     1.000

                            INITIAL TIME STEP SIZE =  0.1458000E-01

 WELL NO.  LAYER   ROW   COL   STRESS RATE         
 --------------------------------------------------
      1      1      1      1      0.2400E-03

      1 WELL 
 
 SOLVING FOR HEAD 

 OUTPUT CONTROL FOR STRESS PERIOD   47   TIME STEP    1
    SAVE HEAD FOR ALL LAYERS
    SAVE BUDGET
 UBDSV1 SAVING "         STORAGE" ON UNIT  31 AT TIME STEP  1, STRESS PERIOD  47
 UBDSV2 SAVING "   CONSTANT HEAD" ON UNIT  31 AT TIME STEP  1, STRESS PERIOD  47
 UBDSV1 SAVING "FLOW RIGHT FACE " ON UNIT  31 AT TIME STEP  1, STRESS PERIOD  47
 UBDSV4 SAVING "           WELLS" ON UNIT  31 AT TIME STEP  1, STRESS PERIOD  47

 SAVING SATURATED THICKNESS AND FLOW TERMS ON UNIT  333 FOR MT3DMS
 BY THE LINK-MT3DMS PACKAGE V7 AT TIME STEP    1, STRESS PERIOD   47


 HEAD WILL BE SAVED ON UNIT   30 AT END OF TIME STEP    1, STRESS PERIOD   47
1
  VOLUMETRIC BUDGET FOR ENTIRE MODEL AT END OF TIME STEP    1, STRESS PERIOD  47
  ------------------------------------------------------------------------------

     CUMULATIVE VOLUMES      L**3       RATES FOR THIS TIME STEP      L**3/T
     ------------------                 ------------------------

           IN:                                      IN:
           ---                                      ---
             STORAGE =           0.0000               STORAGE =           0.0000
       CONSTANT HEAD =           0.0000         CONSTANT HEAD =           0.0000
               WELLS =       1.6446E-04                 WELLS =       2.4000E-04

            TOTAL IN =       1.6446E-04              TOTAL IN =       2.4000E-04

          OUT:                                     OUT:
          ----                                     ----
             STORAGE =           0.0000               STORAGE =           0.0000
       CONSTANT HEAD =       1.6446E-04         CONSTANT HEAD =       2.4000E-04
               WELLS =           0.0000                 WELLS =           0.0000

           TOTAL OUT =       1.6446E-04             TOTAL OUT =       2.4000E-04

            IN - OUT =           0.0000              IN - OUT =      -1.4552E-11

 PERCENT DISCREPANCY =           0.00     PERCENT DISCREPANCY =           0.00






         TIME SUMMARY AT END OF TIME STEP    1 IN STRESS PERIOD   47
                    SECONDS     MINUTES      HOURS       DAYS        YEARS
                    -----------------------------------------------------------
   TIME STEP LENGTH  1259.7      20.995     0.34992     1.45800E-02 3.99179E-05
 STRESS PERIOD TIME  1259.7      20.995     0.34992     1.45800E-02 3.99179E-05
         TOTAL TIME  59206.      986.77      16.446     0.68526     1.87614E-03
1
1
                            STRESS PERIOD NO.   48, LENGTH =  0.1458000E-01
                            -----------------------------------------------

                              NUMBER OF TIME STEPS =     1

                               MULTIPLIER FOR DELT =     1.000

                            INITIAL TIME STEP SIZE =  0.1458000E-01

 WELL NO.  LAYER   ROW   COL   STRESS RATE         
 --------------------------------------------------
      1      1      1      1      0.2400E-03

      1 WELL 
 
 SOLVING FOR HEAD 

 OUTPUT CONTROL FOR STRESS PERIOD   48   TIME STEP    1
    SAVE HEAD FOR ALL LAYERS
    SAVE BUDGET
 UBDSV1 SAVING "         STORAGE" ON UNIT  31 AT TIME STEP  1, STRESS PERIOD  48
 UBDSV2 SAVING "   CONSTANT HEAD" ON UNIT  31 AT TIME STEP  1, STRESS PERIOD  48
 UBDSV1 SAVING "FLOW RIGHT FACE " ON UNIT  31 AT TIME STEP  1, STRESS PERIOD  48
 UBDSV4 SAVING "           WELLS" ON UNIT  31 AT TIME STEP  1, STRESS PERIOD  48

 SAVING SATURATED THICKNESS AND FLOW TERMS ON UNIT  333 FOR MT3DMS
 BY THE LINK-MT3DMS PACKAGE V7 AT TIME STEP    1, STRESS PERIOD   48


 HEAD WILL BE SAVED ON UNIT   30 AT END OF TIME STEP    1, STRESS PERIOD   48
1
  VOLUMETRIC BUDGET FOR ENTIRE MODEL AT END OF TIME STEP    1, STRESS PERIOD  48
  ------------------------------------------------------------------------------

     CUMULATIVE VOLUMES      L**3       RATES FOR THIS TIME STEP      L**3/T
     ------------------                 ------------------------

           IN:                                      IN:
           ---                                      ---
             STORAGE =           0.0000               STORAGE =           0.0000
       CONSTANT HEAD =           0.0000         CONSTANT HEAD =           0.0000
               WELLS =       1.6796E-04                 WELLS =       2.4000E-04

            TOTAL IN =       1.6796E-04              TOTAL IN =       2.4000E-04

          OUT:                                     OUT:
          ----                                     ----
             STORAGE =           0.0000               STORAGE =           0.0000
       CONSTANT HEAD =       1.6796E-04         CONSTANT HEAD =       2.4000E-04
               WELLS =           0.0000                 WELLS =           0.0000

           TOTAL OUT =       1.6796E-04             TOTAL OUT =       2.4000E-04

            IN - OUT =           0.0000              IN - OUT =      -1.4552E-11

 PERCENT DISCREPANCY =           0.00     PERCENT DISCREPANCY =           0.00






         TIME SUMMARY AT END OF TIME STEP    1 IN STRESS PERIOD   48
                    SECONDS     MINUTES      HOURS       DAYS        YEARS
                    -----------------------------------------------------------
   TIME STEP LENGTH  1259.7      20.995     0.34992     1.45800E-02 3.99179E-05
 STRESS PERIOD TIME  1259.7      20.995     0.34992     1.45800E-02 3.99179E-05
         TOTAL TIME  60466.      1007.8      16.796     0.69984     1.91606E-03
1
1
                            STRESS PERIOD NO.   49, LENGTH =  0.1458000E-01
                            -----------------------------------------------

                              NUMBER OF TIME STEPS =     1

                               MULTIPLIER FOR DELT =     1.000

                            INITIAL TIME STEP SIZE =  0.1458000E-01

 WELL NO.  LAYER   ROW   COL   STRESS RATE         
 --------------------------------------------------
      1      1      1      1      0.2400E-03

      1 WELL 
 
 SOLVING FOR HEAD 

 OUTPUT CONTROL FOR STRESS PERIOD   49   TIME STEP    1
    SAVE HEAD FOR ALL LAYERS
    SAVE BUDGET
 UBDSV1 SAVING "         STORAGE" ON UNIT  31 AT TIME STEP  1, STRESS PERIOD  49
 UBDSV2 SAVING "   CONSTANT HEAD" ON UNIT  31 AT TIME STEP  1, STRESS PERIOD  49
 UBDSV1 SAVING "FLOW RIGHT FACE " ON UNIT  31 AT TIME STEP  1, STRESS PERIOD  49
 UBDSV4 SAVING "           WELLS" ON UNIT  31 AT TIME STEP  1, STRESS PERIOD  49

 SAVING SATURATED THICKNESS AND FLOW TERMS ON UNIT  333 FOR MT3DMS
 BY THE LINK-MT3DMS PACKAGE V7 AT TIME STEP    1, STRESS PERIOD   49


 HEAD WILL BE SAVED ON UNIT   30 AT END OF TIME STEP    1, STRESS PERIOD   49
1
  VOLUMETRIC BUDGET FOR ENTIRE MODEL AT END OF TIME STEP    1, STRESS PERIOD  49
  ------------------------------------------------------------------------------

     CUMULATIVE VOLUMES      L**3       RATES FOR THIS TIME STEP      L**3/T
     ------------------                 ------------------------

           IN:                                      IN:
           ---                                      ---
             STORAGE =           0.0000               STORAGE =           0.0000
       CONSTANT HEAD =           0.0000         CONSTANT HEAD =           0.0000
               WELLS =       1.7146E-04                 WELLS =       2.4000E-04

            TOTAL IN =       1.7146E-04              TOTAL IN =       2.4000E-04

          OUT:                                     OUT:
          ----                                     ----
             STORAGE =           0.0000               STORAGE =           0.0000
       CONSTANT HEAD =       1.7146E-04         CONSTANT HEAD =       2.4000E-04
               WELLS =           0.0000                 WELLS =           0.0000

           TOTAL OUT =       1.7146E-04             TOTAL OUT =       2.4000E-04

            IN - OUT =           0.0000              IN - OUT =      -1.4552E-11

 PERCENT DISCREPANCY =           0.00     PERCENT DISCREPANCY =           0.00






         TIME SUMMARY AT END OF TIME STEP    1 IN STRESS PERIOD   49
                    SECONDS     MINUTES      HOURS       DAYS        YEARS
                    -----------------------------------------------------------
   TIME STEP LENGTH  1259.7      20.995     0.34992     1.45800E-02 3.99179E-05
 STRESS PERIOD TIME  1259.7      20.995     0.34992     1.45800E-02 3.99179E-05
         TOTAL TIME  61726.      1028.8      17.146     0.71442     1.95598E-03
1
1
                            STRESS PERIOD NO.   50, LENGTH =  0.1458000E-01
                            -----------------------------------------------

                              NUMBER OF TIME STEPS =     1

                               MULTIPLIER FOR DELT =     1.000

                            INITIAL TIME STEP SIZE =  0.1458000E-01

 WELL NO.  LAYER   ROW   COL   STRESS RATE         
 --------------------------------------------------
      1      1      1      1      0.2400E-03

      1 WELL 
 
 SOLVING FOR HEAD 

 OUTPUT CONTROL FOR STRESS PERIOD   50   TIME STEP    1
    SAVE HEAD FOR ALL LAYERS
    SAVE BUDGET
 UBDSV1 SAVING "         STORAGE" ON UNIT  31 AT TIME STEP  1, STRESS PERIOD  50
 UBDSV2 SAVING "   CONSTANT HEAD" ON UNIT  31 AT TIME STEP  1, STRESS PERIOD  50
 UBDSV1 SAVING "FLOW RIGHT FACE " ON UNIT  31 AT TIME STEP  1, STRESS PERIOD  50
 UBDSV4 SAVING "           WELLS" ON UNIT  31 AT TIME STEP  1, STRESS PERIOD  50

 SAVING SATURATED THICKNESS AND FLOW TERMS ON UNIT  333 FOR MT3DMS
 BY THE LINK-MT3DMS PACKAGE V7 AT TIME STEP    1, STRESS PERIOD   50


 HEAD WILL BE SAVED ON UNIT   30 AT END OF TIME STEP    1, STRESS PERIOD   50
1
  VOLUMETRIC BUDGET FOR ENTIRE MODEL AT END OF TIME STEP    1, STRESS PERIOD  50
  ------------------------------------------------------------------------------

     CUMULATIVE VOLUMES      L**3       RATES FOR THIS TIME STEP      L**3/T
     ------------------                 ------------------------

           IN:                                      IN:
           ---                                      ---
             STORAGE =           0.0000               STORAGE =           0.0000
       CONSTANT HEAD =           0.0000         CONSTANT HEAD =           0.0000
               WELLS =       1.7496E-04                 WELLS =       2.4000E-04

            TOTAL IN =       1.7496E-04              TOTAL IN =       2.4000E-04

          OUT:                                     OUT:
          ----                                     ----
             STORAGE =           0.0000               STORAGE =           0.0000
       CONSTANT HEAD =       1.7496E-04         CONSTANT HEAD =       2.4000E-04
               WELLS =           0.0000                 WELLS =           0.0000

           TOTAL OUT =       1.7496E-04             TOTAL OUT =       2.4000E-04

            IN - OUT =           0.0000              IN - OUT =      -1.4552E-11

 PERCENT DISCREPANCY =           0.00     PERCENT DISCREPANCY =           0.00






         TIME SUMMARY AT END OF TIME STEP    1 IN STRESS PERIOD   50
                    SECONDS     MINUTES      HOURS       DAYS        YEARS
                    -----------------------------------------------------------
   TIME STEP LENGTH  1259.7      20.995     0.34992     1.45800E-02 3.99179E-05
 STRESS PERIOD TIME  1259.7      20.995     0.34992     1.45800E-02 3.99179E-05
         TOTAL TIME  62986.      1049.8      17.496     0.72900     1.99589E-03
1
1
                            STRESS PERIOD NO.   51, LENGTH =  0.1458000E-01
                            -----------------------------------------------

                              NUMBER OF TIME STEPS =     1

                               MULTIPLIER FOR DELT =     1.000

                            INITIAL TIME STEP SIZE =  0.1458000E-01

 WELL NO.  LAYER   ROW   COL   STRESS RATE         
 --------------------------------------------------
      1      1      1      1      0.2400E-03

      1 WELL 
 
 SOLVING FOR HEAD 

 OUTPUT CONTROL FOR STRESS PERIOD   51   TIME STEP    1
    SAVE HEAD FOR ALL LAYERS
    SAVE BUDGET
 UBDSV1 SAVING "         STORAGE" ON UNIT  31 AT TIME STEP  1, STRESS PERIOD  51
 UBDSV2 SAVING "   CONSTANT HEAD" ON UNIT  31 AT TIME STEP  1, STRESS PERIOD  51
 UBDSV1 SAVING "FLOW RIGHT FACE " ON UNIT  31 AT TIME STEP  1, STRESS PERIOD  51
 UBDSV4 SAVING "           WELLS" ON UNIT  31 AT TIME STEP  1, STRESS PERIOD  51

 SAVING SATURATED THICKNESS AND FLOW TERMS ON UNIT  333 FOR MT3DMS
 BY THE LINK-MT3DMS PACKAGE V7 AT TIME STEP    1, STRESS PERIOD   51


 HEAD WILL BE SAVED ON UNIT   30 AT END OF TIME STEP    1, STRESS PERIOD   51
1
  VOLUMETRIC BUDGET FOR ENTIRE MODEL AT END OF TIME STEP    1, STRESS PERIOD  51
  ------------------------------------------------------------------------------

     CUMULATIVE VOLUMES      L**3       RATES FOR THIS TIME STEP      L**3/T
     ------------------                 ------------------------

           IN:                                      IN:
           ---                                      ---
             STORAGE =           0.0000               STORAGE =           0.0000
       CONSTANT HEAD =           0.0000         CONSTANT HEAD =           0.0000
               WELLS =       1.7846E-04                 WELLS =       2.4000E-04

            TOTAL IN =       1.7846E-04              TOTAL IN =       2.4000E-04

          OUT:                                     OUT:
          ----                                     ----
             STORAGE =           0.0000               STORAGE =           0.0000
       CONSTANT HEAD =       1.7846E-04         CONSTANT HEAD =       2.4000E-04
               WELLS =           0.0000                 WELLS =           0.0000

           TOTAL OUT =       1.7846E-04             TOTAL OUT =       2.4000E-04

            IN - OUT =           0.0000              IN - OUT =      -1.4552E-11

 PERCENT DISCREPANCY =           0.00     PERCENT DISCREPANCY =           0.00






         TIME SUMMARY AT END OF TIME STEP    1 IN STRESS PERIOD   51
                    SECONDS     MINUTES      HOURS       DAYS        YEARS
                    -----------------------------------------------------------
   TIME STEP LENGTH  1259.7      20.995     0.34992     1.45800E-02 3.99179E-05
 STRESS PERIOD TIME  1259.7      20.995     0.34992     1.45800E-02 3.99179E-05
         TOTAL TIME  64245.      1070.8      17.846     0.74358     2.03581E-03
1
1
                            STRESS PERIOD NO.   52, LENGTH =  0.1458000E-01
                            -----------------------------------------------

                              NUMBER OF TIME STEPS =     1

                               MULTIPLIER FOR DELT =     1.000

                            INITIAL TIME STEP SIZE =  0.1458000E-01

 WELL NO.  LAYER   ROW   COL   STRESS RATE         
 --------------------------------------------------
      1      1      1      1      0.2400E-03

      1 WELL 
 
 SOLVING FOR HEAD 

 OUTPUT CONTROL FOR STRESS PERIOD   52   TIME STEP    1
    SAVE HEAD FOR ALL LAYERS
    SAVE BUDGET
 UBDSV1 SAVING "         STORAGE" ON UNIT  31 AT TIME STEP  1, STRESS PERIOD  52
 UBDSV2 SAVING "   CONSTANT HEAD" ON UNIT  31 AT TIME STEP  1, STRESS PERIOD  52
 UBDSV1 SAVING "FLOW RIGHT FACE " ON UNIT  31 AT TIME STEP  1, STRESS PERIOD  52
 UBDSV4 SAVING "           WELLS" ON UNIT  31 AT TIME STEP  1, STRESS PERIOD  52

 SAVING SATURATED THICKNESS AND FLOW TERMS ON UNIT  333 FOR MT3DMS
 BY THE LINK-MT3DMS PACKAGE V7 AT TIME STEP    1, STRESS PERIOD   52


 HEAD WILL BE SAVED ON UNIT   30 AT END OF TIME STEP    1, STRESS PERIOD   52
1
  VOLUMETRIC BUDGET FOR ENTIRE MODEL AT END OF TIME STEP    1, STRESS PERIOD  52
  ------------------------------------------------------------------------------

     CUMULATIVE VOLUMES      L**3       RATES FOR THIS TIME STEP      L**3/T
     ------------------                 ------------------------

           IN:                                      IN:
           ---                                      ---
             STORAGE =           0.0000               STORAGE =           0.0000
       CONSTANT HEAD =           0.0000         CONSTANT HEAD =           0.0000
               WELLS =       1.8196E-04                 WELLS =       2.4000E-04

            TOTAL IN =       1.8196E-04              TOTAL IN =       2.4000E-04

          OUT:                                     OUT:
          ----                                     ----
             STORAGE =           0.0000               STORAGE =           0.0000
       CONSTANT HEAD =       1.8196E-04         CONSTANT HEAD =       2.4000E-04
               WELLS =           0.0000                 WELLS =           0.0000

           TOTAL OUT =       1.8196E-04             TOTAL OUT =       2.4000E-04

            IN - OUT =           0.0000              IN - OUT =      -1.4552E-11

 PERCENT DISCREPANCY =           0.00     PERCENT DISCREPANCY =           0.00






         TIME SUMMARY AT END OF TIME STEP    1 IN STRESS PERIOD   52
                    SECONDS     MINUTES      HOURS       DAYS        YEARS
                    -----------------------------------------------------------
   TIME STEP LENGTH  1259.7      20.995     0.34992     1.45800E-02 3.99179E-05
 STRESS PERIOD TIME  1259.7      20.995     0.34992     1.45800E-02 3.99179E-05
         TOTAL TIME  65505.      1091.8      18.196     0.75816     2.07573E-03
1
1
                            STRESS PERIOD NO.   53, LENGTH =  0.1458000E-01
                            -----------------------------------------------

                              NUMBER OF TIME STEPS =     1

                               MULTIPLIER FOR DELT =     1.000

                            INITIAL TIME STEP SIZE =  0.1458000E-01

 WELL NO.  LAYER   ROW   COL   STRESS RATE         
 --------------------------------------------------
      1      1      1      1      0.2400E-03

      1 WELL 
 
 SOLVING FOR HEAD 

 OUTPUT CONTROL FOR STRESS PERIOD   53   TIME STEP    1
    SAVE HEAD FOR ALL LAYERS
    SAVE BUDGET
 UBDSV1 SAVING "         STORAGE" ON UNIT  31 AT TIME STEP  1, STRESS PERIOD  53
 UBDSV2 SAVING "   CONSTANT HEAD" ON UNIT  31 AT TIME STEP  1, STRESS PERIOD  53
 UBDSV1 SAVING "FLOW RIGHT FACE " ON UNIT  31 AT TIME STEP  1, STRESS PERIOD  53
 UBDSV4 SAVING "           WELLS" ON UNIT  31 AT TIME STEP  1, STRESS PERIOD  53

 SAVING SATURATED THICKNESS AND FLOW TERMS ON UNIT  333 FOR MT3DMS
 BY THE LINK-MT3DMS PACKAGE V7 AT TIME STEP    1, STRESS PERIOD   53


 HEAD WILL BE SAVED ON UNIT   30 AT END OF TIME STEP    1, STRESS PERIOD   53
1
  VOLUMETRIC BUDGET FOR ENTIRE MODEL AT END OF TIME STEP    1, STRESS PERIOD  53
  ------------------------------------------------------------------------------

     CUMULATIVE VOLUMES      L**3       RATES FOR THIS TIME STEP      L**3/T
     ------------------                 ------------------------

           IN:                                      IN:
           ---                                      ---
             STORAGE =           0.0000               STORAGE =           0.0000
       CONSTANT HEAD =           0.0000         CONSTANT HEAD =           0.0000
               WELLS =       1.8546E-04                 WELLS =       2.4000E-04

            TOTAL IN =       1.8546E-04              TOTAL IN =       2.4000E-04

          OUT:                                     OUT:
          ----                                     ----
             STORAGE =           0.0000               STORAGE =           0.0000
       CONSTANT HEAD =       1.8546E-04         CONSTANT HEAD =       2.4000E-04
               WELLS =           0.0000                 WELLS =           0.0000

           TOTAL OUT =       1.8546E-04             TOTAL OUT =       2.4000E-04

            IN - OUT =           0.0000              IN - OUT =      -1.4552E-11

 PERCENT DISCREPANCY =           0.00     PERCENT DISCREPANCY =           0.00






         TIME SUMMARY AT END OF TIME STEP    1 IN STRESS PERIOD   53
                    SECONDS     MINUTES      HOURS       DAYS        YEARS
                    -----------------------------------------------------------
   TIME STEP LENGTH  1259.7      20.995     0.34992     1.45800E-02 3.99179E-05
 STRESS PERIOD TIME  1259.7      20.995     0.34992     1.45800E-02 3.99179E-05
         TOTAL TIME  66765.      1112.7      18.546     0.77274     2.11565E-03
1
1
                            STRESS PERIOD NO.   54, LENGTH =  0.1458000E-01
                            -----------------------------------------------

                              NUMBER OF TIME STEPS =     1

                               MULTIPLIER FOR DELT =     1.000

                            INITIAL TIME STEP SIZE =  0.1458000E-01

 WELL NO.  LAYER   ROW   COL   STRESS RATE         
 --------------------------------------------------
      1      1      1      1      0.2400E-03

      1 WELL 
 
 SOLVING FOR HEAD 

 OUTPUT CONTROL FOR STRESS PERIOD   54   TIME STEP    1
    SAVE HEAD FOR ALL LAYERS
    SAVE BUDGET
 UBDSV1 SAVING "         STORAGE" ON UNIT  31 AT TIME STEP  1, STRESS PERIOD  54
 UBDSV2 SAVING "   CONSTANT HEAD" ON UNIT  31 AT TIME STEP  1, STRESS PERIOD  54
 UBDSV1 SAVING "FLOW RIGHT FACE " ON UNIT  31 AT TIME STEP  1, STRESS PERIOD  54
 UBDSV4 SAVING "           WELLS" ON UNIT  31 AT TIME STEP  1, STRESS PERIOD  54

 SAVING SATURATED THICKNESS AND FLOW TERMS ON UNIT  333 FOR MT3DMS
 BY THE LINK-MT3DMS PACKAGE V7 AT TIME STEP    1, STRESS PERIOD   54


 HEAD WILL BE SAVED ON UNIT   30 AT END OF TIME STEP    1, STRESS PERIOD   54
1
  VOLUMETRIC BUDGET FOR ENTIRE MODEL AT END OF TIME STEP    1, STRESS PERIOD  54
  ------------------------------------------------------------------------------

     CUMULATIVE VOLUMES      L**3       RATES FOR THIS TIME STEP      L**3/T
     ------------------                 ------------------------

           IN:                                      IN:
           ---                                      ---
             STORAGE =           0.0000               STORAGE =           0.0000
       CONSTANT HEAD =           0.0000         CONSTANT HEAD =           0.0000
               WELLS =       1.8896E-04                 WELLS =       2.4000E-04

            TOTAL IN =       1.8896E-04              TOTAL IN =       2.4000E-04

          OUT:                                     OUT:
          ----                                     ----
             STORAGE =           0.0000               STORAGE =           0.0000
       CONSTANT HEAD =       1.8896E-04         CONSTANT HEAD =       2.4000E-04
               WELLS =           0.0000                 WELLS =           0.0000

           TOTAL OUT =       1.8896E-04             TOTAL OUT =       2.4000E-04

            IN - OUT =           0.0000              IN - OUT =      -1.4552E-11

 PERCENT DISCREPANCY =           0.00     PERCENT DISCREPANCY =           0.00






         TIME SUMMARY AT END OF TIME STEP    1 IN STRESS PERIOD   54
                    SECONDS     MINUTES      HOURS       DAYS        YEARS
                    -----------------------------------------------------------
   TIME STEP LENGTH  1259.7      20.995     0.34992     1.45800E-02 3.99179E-05
 STRESS PERIOD TIME  1259.7      20.995     0.34992     1.45800E-02 3.99179E-05
         TOTAL TIME  68024.      1133.7      18.896     0.78732     2.15557E-03
1
1
                            STRESS PERIOD NO.   55, LENGTH =  0.1458000E-01
                            -----------------------------------------------

                              NUMBER OF TIME STEPS =     1

                               MULTIPLIER FOR DELT =     1.000

                            INITIAL TIME STEP SIZE =  0.1458000E-01

 WELL NO.  LAYER   ROW   COL   STRESS RATE         
 --------------------------------------------------
      1      1      1      1      0.2400E-03

      1 WELL 
 
 SOLVING FOR HEAD 

 OUTPUT CONTROL FOR STRESS PERIOD   55   TIME STEP    1
    SAVE HEAD FOR ALL LAYERS
    SAVE BUDGET
 UBDSV1 SAVING "         STORAGE" ON UNIT  31 AT TIME STEP  1, STRESS PERIOD  55
 UBDSV2 SAVING "   CONSTANT HEAD" ON UNIT  31 AT TIME STEP  1, STRESS PERIOD  55
 UBDSV1 SAVING "FLOW RIGHT FACE " ON UNIT  31 AT TIME STEP  1, STRESS PERIOD  55
 UBDSV4 SAVING "           WELLS" ON UNIT  31 AT TIME STEP  1, STRESS PERIOD  55

 SAVING SATURATED THICKNESS AND FLOW TERMS ON UNIT  333 FOR MT3DMS
 BY THE LINK-MT3DMS PACKAGE V7 AT TIME STEP    1, STRESS PERIOD   55


 HEAD WILL BE SAVED ON UNIT   30 AT END OF TIME STEP    1, STRESS PERIOD   55
1
  VOLUMETRIC BUDGET FOR ENTIRE MODEL AT END OF TIME STEP    1, STRESS PERIOD  55
  ------------------------------------------------------------------------------

     CUMULATIVE VOLUMES      L**3       RATES FOR THIS TIME STEP      L**3/T
     ------------------                 ------------------------

           IN:                                      IN:
           ---                                      ---
             STORAGE =           0.0000               STORAGE =           0.0000
       CONSTANT HEAD =           0.0000         CONSTANT HEAD =           0.0000
               WELLS =       1.9246E-04                 WELLS =       2.4000E-04

            TOTAL IN =       1.9246E-04              TOTAL IN =       2.4000E-04

          OUT:                                     OUT:
          ----                                     ----
             STORAGE =           0.0000               STORAGE =           0.0000
       CONSTANT HEAD =       1.9246E-04         CONSTANT HEAD =       2.4000E-04
               WELLS =           0.0000                 WELLS =           0.0000

           TOTAL OUT =       1.9246E-04             TOTAL OUT =       2.4000E-04

            IN - OUT =           0.0000              IN - OUT =      -1.4552E-11

 PERCENT DISCREPANCY =           0.00     PERCENT DISCREPANCY =           0.00






         TIME SUMMARY AT END OF TIME STEP    1 IN STRESS PERIOD   55
                    SECONDS     MINUTES      HOURS       DAYS        YEARS
                    -----------------------------------------------------------
   TIME STEP LENGTH  1259.7      20.995     0.34992     1.45800E-02 3.99179E-05
 STRESS PERIOD TIME  1259.7      20.995     0.34992     1.45800E-02 3.99179E-05
         TOTAL TIME  69284.      1154.7      19.246     0.80190     2.19548E-03
1
1
                            STRESS PERIOD NO.   56, LENGTH =  0.1458000E-01
                            -----------------------------------------------

                              NUMBER OF TIME STEPS =     1

                               MULTIPLIER FOR DELT =     1.000

                            INITIAL TIME STEP SIZE =  0.1458000E-01

 WELL NO.  LAYER   ROW   COL   STRESS RATE         
 --------------------------------------------------
      1      1      1      1      0.2400E-03

      1 WELL 
 
 SOLVING FOR HEAD 

 OUTPUT CONTROL FOR STRESS PERIOD   56   TIME STEP    1
    SAVE HEAD FOR ALL LAYERS
    SAVE BUDGET
 UBDSV1 SAVING "         STORAGE" ON UNIT  31 AT TIME STEP  1, STRESS PERIOD  56
 UBDSV2 SAVING "   CONSTANT HEAD" ON UNIT  31 AT TIME STEP  1, STRESS PERIOD  56
 UBDSV1 SAVING "FLOW RIGHT FACE " ON UNIT  31 AT TIME STEP  1, STRESS PERIOD  56
 UBDSV4 SAVING "           WELLS" ON UNIT  31 AT TIME STEP  1, STRESS PERIOD  56

 SAVING SATURATED THICKNESS AND FLOW TERMS ON UNIT  333 FOR MT3DMS
 BY THE LINK-MT3DMS PACKAGE V7 AT TIME STEP    1, STRESS PERIOD   56


 HEAD WILL BE SAVED ON UNIT   30 AT END OF TIME STEP    1, STRESS PERIOD   56
1
  VOLUMETRIC BUDGET FOR ENTIRE MODEL AT END OF TIME STEP    1, STRESS PERIOD  56
  ------------------------------------------------------------------------------

     CUMULATIVE VOLUMES      L**3       RATES FOR THIS TIME STEP      L**3/T
     ------------------                 ------------------------

           IN:                                      IN:
           ---                                      ---
             STORAGE =           0.0000               STORAGE =           0.0000
       CONSTANT HEAD =           0.0000         CONSTANT HEAD =           0.0000
               WELLS =       1.9596E-04                 WELLS =       2.4000E-04

            TOTAL IN =       1.9596E-04              TOTAL IN =       2.4000E-04

          OUT:                                     OUT:
          ----                                     ----
             STORAGE =           0.0000               STORAGE =           0.0000
       CONSTANT HEAD =       1.9596E-04         CONSTANT HEAD =       2.4000E-04
               WELLS =           0.0000                 WELLS =           0.0000

           TOTAL OUT =       1.9596E-04             TOTAL OUT =       2.4000E-04

            IN - OUT =           0.0000              IN - OUT =      -1.4552E-11

 PERCENT DISCREPANCY =           0.00     PERCENT DISCREPANCY =           0.00






         TIME SUMMARY AT END OF TIME STEP    1 IN STRESS PERIOD   56
                    SECONDS     MINUTES      HOURS       DAYS        YEARS
                    -----------------------------------------------------------
   TIME STEP LENGTH  1259.7      20.995     0.34992     1.45800E-02 3.99179E-05
 STRESS PERIOD TIME  1259.7      20.995     0.34992     1.45800E-02 3.99179E-05
         TOTAL TIME  70544.      1175.7      19.596     0.81648     2.23540E-03
1
1
                            STRESS PERIOD NO.   57, LENGTH =  0.1458000E-01
                            -----------------------------------------------

                              NUMBER OF TIME STEPS =     1

                               MULTIPLIER FOR DELT =     1.000

                            INITIAL TIME STEP SIZE =  0.1458000E-01

 WELL NO.  LAYER   ROW   COL   STRESS RATE         
 --------------------------------------------------
      1      1      1      1      0.2400E-03

      1 WELL 
 
 SOLVING FOR HEAD 

 OUTPUT CONTROL FOR STRESS PERIOD   57   TIME STEP    1
    SAVE HEAD FOR ALL LAYERS
    SAVE BUDGET
 UBDSV1 SAVING "         STORAGE" ON UNIT  31 AT TIME STEP  1, STRESS PERIOD  57
 UBDSV2 SAVING "   CONSTANT HEAD" ON UNIT  31 AT TIME STEP  1, STRESS PERIOD  57
 UBDSV1 SAVING "FLOW RIGHT FACE " ON UNIT  31 AT TIME STEP  1, STRESS PERIOD  57
 UBDSV4 SAVING "           WELLS" ON UNIT  31 AT TIME STEP  1, STRESS PERIOD  57

 SAVING SATURATED THICKNESS AND FLOW TERMS ON UNIT  333 FOR MT3DMS
 BY THE LINK-MT3DMS PACKAGE V7 AT TIME STEP    1, STRESS PERIOD   57


 HEAD WILL BE SAVED ON UNIT   30 AT END OF TIME STEP    1, STRESS PERIOD   57
1
  VOLUMETRIC BUDGET FOR ENTIRE MODEL AT END OF TIME STEP    1, STRESS PERIOD  57
  ------------------------------------------------------------------------------

     CUMULATIVE VOLUMES      L**3       RATES FOR THIS TIME STEP      L**3/T
     ------------------                 ------------------------

           IN:                                      IN:
           ---                                      ---
             STORAGE =           0.0000               STORAGE =           0.0000
       CONSTANT HEAD =           0.0000         CONSTANT HEAD =           0.0000
               WELLS =       1.9945E-04                 WELLS =       2.4000E-04

            TOTAL IN =       1.9945E-04              TOTAL IN =       2.4000E-04

          OUT:                                     OUT:
          ----                                     ----
             STORAGE =           0.0000               STORAGE =           0.0000
       CONSTANT HEAD =       1.9945E-04         CONSTANT HEAD =       2.4000E-04
               WELLS =           0.0000                 WELLS =           0.0000

           TOTAL OUT =       1.9945E-04             TOTAL OUT =       2.4000E-04

            IN - OUT =           0.0000              IN - OUT =      -1.4552E-11

 PERCENT DISCREPANCY =           0.00     PERCENT DISCREPANCY =           0.00






         TIME SUMMARY AT END OF TIME STEP    1 IN STRESS PERIOD   57
                    SECONDS     MINUTES      HOURS       DAYS        YEARS
                    -----------------------------------------------------------
   TIME STEP LENGTH  1259.7      20.995     0.34992     1.45800E-02 3.99179E-05
 STRESS PERIOD TIME  1259.7      20.995     0.34992     1.45800E-02 3.99179E-05
         TOTAL TIME  71804.      1196.7      19.945     0.83106     2.27532E-03
1
1
                            STRESS PERIOD NO.   58, LENGTH =  0.1458000E-01
                            -----------------------------------------------

                              NUMBER OF TIME STEPS =     1

                               MULTIPLIER FOR DELT =     1.000

                            INITIAL TIME STEP SIZE =  0.1458000E-01

 WELL NO.  LAYER   ROW   COL   STRESS RATE         
 --------------------------------------------------
      1      1      1      1      0.2400E-03

      1 WELL 
 
 SOLVING FOR HEAD 

 OUTPUT CONTROL FOR STRESS PERIOD   58   TIME STEP    1
    SAVE HEAD FOR ALL LAYERS
    SAVE BUDGET
 UBDSV1 SAVING "         STORAGE" ON UNIT  31 AT TIME STEP  1, STRESS PERIOD  58
 UBDSV2 SAVING "   CONSTANT HEAD" ON UNIT  31 AT TIME STEP  1, STRESS PERIOD  58
 UBDSV1 SAVING "FLOW RIGHT FACE " ON UNIT  31 AT TIME STEP  1, STRESS PERIOD  58
 UBDSV4 SAVING "           WELLS" ON UNIT  31 AT TIME STEP  1, STRESS PERIOD  58

 SAVING SATURATED THICKNESS AND FLOW TERMS ON UNIT  333 FOR MT3DMS
 BY THE LINK-MT3DMS PACKAGE V7 AT TIME STEP    1, STRESS PERIOD   58


 HEAD WILL BE SAVED ON UNIT   30 AT END OF TIME STEP    1, STRESS PERIOD   58
1
  VOLUMETRIC BUDGET FOR ENTIRE MODEL AT END OF TIME STEP    1, STRESS PERIOD  58
  ------------------------------------------------------------------------------

     CUMULATIVE VOLUMES      L**3       RATES FOR THIS TIME STEP      L**3/T
     ------------------                 ------------------------

           IN:                                      IN:
           ---                                      ---
             STORAGE =           0.0000               STORAGE =           0.0000
       CONSTANT HEAD =           0.0000         CONSTANT HEAD =           0.0000
               WELLS =       2.0295E-04                 WELLS =       2.4000E-04

            TOTAL IN =       2.0295E-04              TOTAL IN =       2.4000E-04

          OUT:                                     OUT:
          ----                                     ----
             STORAGE =           0.0000               STORAGE =           0.0000
       CONSTANT HEAD =       2.0295E-04         CONSTANT HEAD =       2.4000E-04
               WELLS =           0.0000                 WELLS =           0.0000

           TOTAL OUT =       2.0295E-04             TOTAL OUT =       2.4000E-04

            IN - OUT =           0.0000              IN - OUT =      -1.4552E-11

 PERCENT DISCREPANCY =           0.00     PERCENT DISCREPANCY =           0.00






         TIME SUMMARY AT END OF TIME STEP    1 IN STRESS PERIOD   58
                    SECONDS     MINUTES      HOURS       DAYS        YEARS
                    -----------------------------------------------------------
   TIME STEP LENGTH  1259.7      20.995     0.34992     1.45800E-02 3.99179E-05
 STRESS PERIOD TIME  1259.7      20.995     0.34992     1.45800E-02 3.99179E-05
         TOTAL TIME  73063.      1217.7      20.295     0.84564     2.31524E-03
1
1
                            STRESS PERIOD NO.   59, LENGTH =  0.1458000E-01
                            -----------------------------------------------

                              NUMBER OF TIME STEPS =     1

                               MULTIPLIER FOR DELT =     1.000

                            INITIAL TIME STEP SIZE =  0.1458000E-01

 WELL NO.  LAYER   ROW   COL   STRESS RATE         
 --------------------------------------------------
      1      1      1      1      0.2400E-03

      1 WELL 
 
 SOLVING FOR HEAD 

 OUTPUT CONTROL FOR STRESS PERIOD   59   TIME STEP    1
    SAVE HEAD FOR ALL LAYERS
    SAVE BUDGET
 UBDSV1 SAVING "         STORAGE" ON UNIT  31 AT TIME STEP  1, STRESS PERIOD  59
 UBDSV2 SAVING "   CONSTANT HEAD" ON UNIT  31 AT TIME STEP  1, STRESS PERIOD  59
 UBDSV1 SAVING "FLOW RIGHT FACE " ON UNIT  31 AT TIME STEP  1, STRESS PERIOD  59
 UBDSV4 SAVING "           WELLS" ON UNIT  31 AT TIME STEP  1, STRESS PERIOD  59

 SAVING SATURATED THICKNESS AND FLOW TERMS ON UNIT  333 FOR MT3DMS
 BY THE LINK-MT3DMS PACKAGE V7 AT TIME STEP    1, STRESS PERIOD   59


 HEAD WILL BE SAVED ON UNIT   30 AT END OF TIME STEP    1, STRESS PERIOD   59
1
  VOLUMETRIC BUDGET FOR ENTIRE MODEL AT END OF TIME STEP    1, STRESS PERIOD  59
  ------------------------------------------------------------------------------

     CUMULATIVE VOLUMES      L**3       RATES FOR THIS TIME STEP      L**3/T
     ------------------                 ------------------------

           IN:                                      IN:
           ---                                      ---
             STORAGE =           0.0000               STORAGE =           0.0000
       CONSTANT HEAD =           0.0000         CONSTANT HEAD =           0.0000
               WELLS =       2.0645E-04                 WELLS =       2.4000E-04

            TOTAL IN =       2.0645E-04              TOTAL IN =       2.4000E-04

          OUT:                                     OUT:
          ----                                     ----
             STORAGE =           0.0000               STORAGE =           0.0000
       CONSTANT HEAD =       2.0645E-04         CONSTANT HEAD =       2.4000E-04
               WELLS =           0.0000                 WELLS =           0.0000

           TOTAL OUT =       2.0645E-04             TOTAL OUT =       2.4000E-04

            IN - OUT =           0.0000              IN - OUT =      -1.4552E-11

 PERCENT DISCREPANCY =           0.00     PERCENT DISCREPANCY =           0.00






         TIME SUMMARY AT END OF TIME STEP    1 IN STRESS PERIOD   59
                    SECONDS     MINUTES      HOURS       DAYS        YEARS
                    -----------------------------------------------------------
   TIME STEP LENGTH  1259.7      20.995     0.34992     1.45800E-02 3.99179E-05
 STRESS PERIOD TIME  1259.7      20.995     0.34992     1.45800E-02 3.99179E-05
         TOTAL TIME  74323.      1238.7      20.645     0.86022     2.35516E-03
1
1
                            STRESS PERIOD NO.   60, LENGTH =  0.1458000E-01
                            -----------------------------------------------

                              NUMBER OF TIME STEPS =     1

                               MULTIPLIER FOR DELT =     1.000

                            INITIAL TIME STEP SIZE =  0.1458000E-01

 WELL NO.  LAYER   ROW   COL   STRESS RATE         
 --------------------------------------------------
      1      1      1      1      0.2400E-03

      1 WELL 
 
 SOLVING FOR HEAD 

 OUTPUT CONTROL FOR STRESS PERIOD   60   TIME STEP    1
    SAVE HEAD FOR ALL LAYERS
    SAVE BUDGET
 UBDSV1 SAVING "         STORAGE" ON UNIT  31 AT TIME STEP  1, STRESS PERIOD  60
 UBDSV2 SAVING "   CONSTANT HEAD" ON UNIT  31 AT TIME STEP  1, STRESS PERIOD  60
 UBDSV1 SAVING "FLOW RIGHT FACE " ON UNIT  31 AT TIME STEP  1, STRESS PERIOD  60
 UBDSV4 SAVING "           WELLS" ON UNIT  31 AT TIME STEP  1, STRESS PERIOD  60

 SAVING SATURATED THICKNESS AND FLOW TERMS ON UNIT  333 FOR MT3DMS
 BY THE LINK-MT3DMS PACKAGE V7 AT TIME STEP    1, STRESS PERIOD   60


 HEAD WILL BE SAVED ON UNIT   30 AT END OF TIME STEP    1, STRESS PERIOD   60
1
  VOLUMETRIC BUDGET FOR ENTIRE MODEL AT END OF TIME STEP    1, STRESS PERIOD  60
  ------------------------------------------------------------------------------

     CUMULATIVE VOLUMES      L**3       RATES FOR THIS TIME STEP      L**3/T
     ------------------                 ------------------------

           IN:                                      IN:
           ---                                      ---
             STORAGE =           0.0000               STORAGE =           0.0000
       CONSTANT HEAD =           0.0000         CONSTANT HEAD =           0.0000
               WELLS =       2.0995E-04                 WELLS =       2.4000E-04

            TOTAL IN =       2.0995E-04              TOTAL IN =       2.4000E-04

          OUT:                                     OUT:
          ----                                     ----
             STORAGE =           0.0000               STORAGE =           0.0000
       CONSTANT HEAD =       2.0995E-04         CONSTANT HEAD =       2.4000E-04
               WELLS =           0.0000                 WELLS =           0.0000

           TOTAL OUT =       2.0995E-04             TOTAL OUT =       2.4000E-04

            IN - OUT =           0.0000              IN - OUT =      -1.4552E-11

 PERCENT DISCREPANCY =           0.00     PERCENT DISCREPANCY =           0.00






         TIME SUMMARY AT END OF TIME STEP    1 IN STRESS PERIOD   60
                    SECONDS     MINUTES      HOURS       DAYS        YEARS
                    -----------------------------------------------------------
   TIME STEP LENGTH  1259.7      20.995     0.34992     1.45800E-02 3.99179E-05
 STRESS PERIOD TIME  1259.7      20.995     0.34992     1.45800E-02 3.99179E-05
         TOTAL TIME  75583.      1259.7      20.995     0.87480     2.39507E-03
1
1
                            STRESS PERIOD NO.   61, LENGTH =  0.1458000E-01
                            -----------------------------------------------

                              NUMBER OF TIME STEPS =     1

                               MULTIPLIER FOR DELT =     1.000

                            INITIAL TIME STEP SIZE =  0.1458000E-01

 WELL NO.  LAYER   ROW   COL   STRESS RATE         
 --------------------------------------------------
      1      1      1      1      0.2400E-03

      1 WELL 
 
 SOLVING FOR HEAD 

 OUTPUT CONTROL FOR STRESS PERIOD   61   TIME STEP    1
    SAVE HEAD FOR ALL LAYERS
    SAVE BUDGET
 UBDSV1 SAVING "         STORAGE" ON UNIT  31 AT TIME STEP  1, STRESS PERIOD  61
 UBDSV2 SAVING "   CONSTANT HEAD" ON UNIT  31 AT TIME STEP  1, STRESS PERIOD  61
 UBDSV1 SAVING "FLOW RIGHT FACE " ON UNIT  31 AT TIME STEP  1, STRESS PERIOD  61
 UBDSV4 SAVING "           WELLS" ON UNIT  31 AT TIME STEP  1, STRESS PERIOD  61

 SAVING SATURATED THICKNESS AND FLOW TERMS ON UNIT  333 FOR MT3DMS
 BY THE LINK-MT3DMS PACKAGE V7 AT TIME STEP    1, STRESS PERIOD   61


 HEAD WILL BE SAVED ON UNIT   30 AT END OF TIME STEP    1, STRESS PERIOD   61
1
  VOLUMETRIC BUDGET FOR ENTIRE MODEL AT END OF TIME STEP    1, STRESS PERIOD  61
  ------------------------------------------------------------------------------

     CUMULATIVE VOLUMES      L**3       RATES FOR THIS TIME STEP      L**3/T
     ------------------                 ------------------------

           IN:                                      IN:
           ---                                      ---
             STORAGE =           0.0000               STORAGE =           0.0000
       CONSTANT HEAD =           0.0000         CONSTANT HEAD =           0.0000
               WELLS =       2.1345E-04                 WELLS =       2.4000E-04

            TOTAL IN =       2.1345E-04              TOTAL IN =       2.4000E-04

          OUT:                                     OUT:
          ----                                     ----
             STORAGE =           0.0000               STORAGE =           0.0000
       CONSTANT HEAD =       2.1345E-04         CONSTANT HEAD =       2.4000E-04
               WELLS =           0.0000                 WELLS =           0.0000

           TOTAL OUT =       2.1345E-04             TOTAL OUT =       2.4000E-04

            IN - OUT =           0.0000              IN - OUT =      -1.4552E-11

 PERCENT DISCREPANCY =           0.00     PERCENT DISCREPANCY =           0.00






         TIME SUMMARY AT END OF TIME STEP    1 IN STRESS PERIOD   61
                    SECONDS     MINUTES      HOURS       DAYS        YEARS
                    -----------------------------------------------------------
   TIME STEP LENGTH  1259.7      20.995     0.34992     1.45800E-02 3.99179E-05
 STRESS PERIOD TIME  1259.7      20.995     0.34992     1.45800E-02 3.99179E-05
         TOTAL TIME  76842.      1280.7      21.345     0.88938     2.43499E-03
1
1
                            STRESS PERIOD NO.   62, LENGTH =  0.1458000E-01
                            -----------------------------------------------

                              NUMBER OF TIME STEPS =     1

                               MULTIPLIER FOR DELT =     1.000

                            INITIAL TIME STEP SIZE =  0.1458000E-01

 WELL NO.  LAYER   ROW   COL   STRESS RATE         
 --------------------------------------------------
      1      1      1      1      0.2400E-03

      1 WELL 
 
 SOLVING FOR HEAD 

 OUTPUT CONTROL FOR STRESS PERIOD   62   TIME STEP    1
    SAVE HEAD FOR ALL LAYERS
    SAVE BUDGET
 UBDSV1 SAVING "         STORAGE" ON UNIT  31 AT TIME STEP  1, STRESS PERIOD  62
 UBDSV2 SAVING "   CONSTANT HEAD" ON UNIT  31 AT TIME STEP  1, STRESS PERIOD  62
 UBDSV1 SAVING "FLOW RIGHT FACE " ON UNIT  31 AT TIME STEP  1, STRESS PERIOD  62
 UBDSV4 SAVING "           WELLS" ON UNIT  31 AT TIME STEP  1, STRESS PERIOD  62

 SAVING SATURATED THICKNESS AND FLOW TERMS ON UNIT  333 FOR MT3DMS
 BY THE LINK-MT3DMS PACKAGE V7 AT TIME STEP    1, STRESS PERIOD   62


 HEAD WILL BE SAVED ON UNIT   30 AT END OF TIME STEP    1, STRESS PERIOD   62
1
  VOLUMETRIC BUDGET FOR ENTIRE MODEL AT END OF TIME STEP    1, STRESS PERIOD  62
  ------------------------------------------------------------------------------

     CUMULATIVE VOLUMES      L**3       RATES FOR THIS TIME STEP      L**3/T
     ------------------                 ------------------------

           IN:                                      IN:
           ---                                      ---
             STORAGE =           0.0000               STORAGE =           0.0000
       CONSTANT HEAD =           0.0000         CONSTANT HEAD =           0.0000
               WELLS =       2.1695E-04                 WELLS =       2.4000E-04

            TOTAL IN =       2.1695E-04              TOTAL IN =       2.4000E-04

          OUT:                                     OUT:
          ----                                     ----
             STORAGE =           0.0000               STORAGE =           0.0000
       CONSTANT HEAD =       2.1695E-04         CONSTANT HEAD =       2.4000E-04
               WELLS =           0.0000                 WELLS =           0.0000

           TOTAL OUT =       2.1695E-04             TOTAL OUT =       2.4000E-04

            IN - OUT =           0.0000              IN - OUT =      -1.4552E-11

 PERCENT DISCREPANCY =           0.00     PERCENT DISCREPANCY =           0.00






         TIME SUMMARY AT END OF TIME STEP    1 IN STRESS PERIOD   62
                    SECONDS     MINUTES      HOURS       DAYS        YEARS
                    -----------------------------------------------------------
   TIME STEP LENGTH  1259.7      20.995     0.34992     1.45800E-02 3.99179E-05
 STRESS PERIOD TIME  1259.7      20.995     0.34992     1.45800E-02 3.99179E-05
         TOTAL TIME  78102.      1301.7      21.695     0.90396     2.47491E-03
1
1
                            STRESS PERIOD NO.   63, LENGTH =  0.1458000E-01
                            -----------------------------------------------

                              NUMBER OF TIME STEPS =     1

                               MULTIPLIER FOR DELT =     1.000

                            INITIAL TIME STEP SIZE =  0.1458000E-01

 WELL NO.  LAYER   ROW   COL   STRESS RATE         
 --------------------------------------------------
      1      1      1      1      0.2400E-03

      1 WELL 
 
 SOLVING FOR HEAD 

 OUTPUT CONTROL FOR STRESS PERIOD   63   TIME STEP    1
    SAVE HEAD FOR ALL LAYERS
    SAVE BUDGET
 UBDSV1 SAVING "         STORAGE" ON UNIT  31 AT TIME STEP  1, STRESS PERIOD  63
 UBDSV2 SAVING "   CONSTANT HEAD" ON UNIT  31 AT TIME STEP  1, STRESS PERIOD  63
 UBDSV1 SAVING "FLOW RIGHT FACE " ON UNIT  31 AT TIME STEP  1, STRESS PERIOD  63
 UBDSV4 SAVING "           WELLS" ON UNIT  31 AT TIME STEP  1, STRESS PERIOD  63

 SAVING SATURATED THICKNESS AND FLOW TERMS ON UNIT  333 FOR MT3DMS
 BY THE LINK-MT3DMS PACKAGE V7 AT TIME STEP    1, STRESS PERIOD   63


 HEAD WILL BE SAVED ON UNIT   30 AT END OF TIME STEP    1, STRESS PERIOD   63
1
  VOLUMETRIC BUDGET FOR ENTIRE MODEL AT END OF TIME STEP    1, STRESS PERIOD  63
  ------------------------------------------------------------------------------

     CUMULATIVE VOLUMES      L**3       RATES FOR THIS TIME STEP      L**3/T
     ------------------                 ------------------------

           IN:                                      IN:
           ---                                      ---
             STORAGE =           0.0000               STORAGE =           0.0000
       CONSTANT HEAD =           0.0000         CONSTANT HEAD =           0.0000
               WELLS =       2.2045E-04                 WELLS =       2.4000E-04

            TOTAL IN =       2.2045E-04              TOTAL IN =       2.4000E-04

          OUT:                                     OUT:
          ----                                     ----
             STORAGE =           0.0000               STORAGE =           0.0000
       CONSTANT HEAD =       2.2045E-04         CONSTANT HEAD =       2.4000E-04
               WELLS =           0.0000                 WELLS =           0.0000

           TOTAL OUT =       2.2045E-04             TOTAL OUT =       2.4000E-04

            IN - OUT =           0.0000              IN - OUT =      -1.4552E-11

 PERCENT DISCREPANCY =           0.00     PERCENT DISCREPANCY =           0.00






         TIME SUMMARY AT END OF TIME STEP    1 IN STRESS PERIOD   63
                    SECONDS     MINUTES      HOURS       DAYS        YEARS
                    -----------------------------------------------------------
   TIME STEP LENGTH  1259.7      20.995     0.34992     1.45800E-02 3.99179E-05
 STRESS PERIOD TIME  1259.7      20.995     0.34992     1.45800E-02 3.99179E-05
         TOTAL TIME  79362.      1322.7      22.045     0.91854     2.51483E-03
1
1
                            STRESS PERIOD NO.   64, LENGTH =  0.1458000E-01
                            -----------------------------------------------

                              NUMBER OF TIME STEPS =     1

                               MULTIPLIER FOR DELT =     1.000

                            INITIAL TIME STEP SIZE =  0.1458000E-01

 WELL NO.  LAYER   ROW   COL   STRESS RATE         
 --------------------------------------------------
      1      1      1      1      0.2400E-03

      1 WELL 
 
 SOLVING FOR HEAD 

 OUTPUT CONTROL FOR STRESS PERIOD   64   TIME STEP    1
    SAVE HEAD FOR ALL LAYERS
    SAVE BUDGET
 UBDSV1 SAVING "         STORAGE" ON UNIT  31 AT TIME STEP  1, STRESS PERIOD  64
 UBDSV2 SAVING "   CONSTANT HEAD" ON UNIT  31 AT TIME STEP  1, STRESS PERIOD  64
 UBDSV1 SAVING "FLOW RIGHT FACE " ON UNIT  31 AT TIME STEP  1, STRESS PERIOD  64
 UBDSV4 SAVING "           WELLS" ON UNIT  31 AT TIME STEP  1, STRESS PERIOD  64

 SAVING SATURATED THICKNESS AND FLOW TERMS ON UNIT  333 FOR MT3DMS
 BY THE LINK-MT3DMS PACKAGE V7 AT TIME STEP    1, STRESS PERIOD   64


 HEAD WILL BE SAVED ON UNIT   30 AT END OF TIME STEP    1, STRESS PERIOD   64
1
  VOLUMETRIC BUDGET FOR ENTIRE MODEL AT END OF TIME STEP    1, STRESS PERIOD  64
  ------------------------------------------------------------------------------

     CUMULATIVE VOLUMES      L**3       RATES FOR THIS TIME STEP      L**3/T
     ------------------                 ------------------------

           IN:                                      IN:
           ---                                      ---
             STORAGE =           0.0000               STORAGE =           0.0000
       CONSTANT HEAD =           0.0000         CONSTANT HEAD =           0.0000
               WELLS =       2.2395E-04                 WELLS =       2.4000E-04

            TOTAL IN =       2.2395E-04              TOTAL IN =       2.4000E-04

          OUT:                                     OUT:
          ----                                     ----
             STORAGE =           0.0000               STORAGE =           0.0000
       CONSTANT HEAD =       2.2395E-04         CONSTANT HEAD =       2.4000E-04
               WELLS =           0.0000                 WELLS =           0.0000

           TOTAL OUT =       2.2395E-04             TOTAL OUT =       2.4000E-04

            IN - OUT =           0.0000              IN - OUT =      -1.4552E-11

 PERCENT DISCREPANCY =           0.00     PERCENT DISCREPANCY =           0.00






         TIME SUMMARY AT END OF TIME STEP    1 IN STRESS PERIOD   64
                    SECONDS     MINUTES      HOURS       DAYS        YEARS
                    -----------------------------------------------------------
   TIME STEP LENGTH  1259.7      20.995     0.34992     1.45800E-02 3.99179E-05
 STRESS PERIOD TIME  1259.7      20.995     0.34992     1.45800E-02 3.99179E-05
         TOTAL TIME  80622.      1343.7      22.395     0.93312     2.55474E-03
1
1
                            STRESS PERIOD NO.   65, LENGTH =  0.1458000E-01
                            -----------------------------------------------

                              NUMBER OF TIME STEPS =     1

                               MULTIPLIER FOR DELT =     1.000

                            INITIAL TIME STEP SIZE =  0.1458000E-01

 WELL NO.  LAYER   ROW   COL   STRESS RATE         
 --------------------------------------------------
      1      1      1      1      0.2400E-03

      1 WELL 
 
 SOLVING FOR HEAD 

 OUTPUT CONTROL FOR STRESS PERIOD   65   TIME STEP    1
    SAVE HEAD FOR ALL LAYERS
    SAVE BUDGET
 UBDSV1 SAVING "         STORAGE" ON UNIT  31 AT TIME STEP  1, STRESS PERIOD  65
 UBDSV2 SAVING "   CONSTANT HEAD" ON UNIT  31 AT TIME STEP  1, STRESS PERIOD  65
 UBDSV1 SAVING "FLOW RIGHT FACE " ON UNIT  31 AT TIME STEP  1, STRESS PERIOD  65
 UBDSV4 SAVING "           WELLS" ON UNIT  31 AT TIME STEP  1, STRESS PERIOD  65

 SAVING SATURATED THICKNESS AND FLOW TERMS ON UNIT  333 FOR MT3DMS
 BY THE LINK-MT3DMS PACKAGE V7 AT TIME STEP    1, STRESS PERIOD   65


 HEAD WILL BE SAVED ON UNIT   30 AT END OF TIME STEP    1, STRESS PERIOD   65
1
  VOLUMETRIC BUDGET FOR ENTIRE MODEL AT END OF TIME STEP    1, STRESS PERIOD  65
  ------------------------------------------------------------------------------

     CUMULATIVE VOLUMES      L**3       RATES FOR THIS TIME STEP      L**3/T
     ------------------                 ------------------------

           IN:                                      IN:
           ---                                      ---
             STORAGE =           0.0000               STORAGE =           0.0000
       CONSTANT HEAD =           0.0000         CONSTANT HEAD =           0.0000
               WELLS =       2.2745E-04                 WELLS =       2.4000E-04

            TOTAL IN =       2.2745E-04              TOTAL IN =       2.4000E-04

          OUT:                                     OUT:
          ----                                     ----
             STORAGE =           0.0000               STORAGE =           0.0000
       CONSTANT HEAD =       2.2745E-04         CONSTANT HEAD =       2.4000E-04
               WELLS =           0.0000                 WELLS =           0.0000

           TOTAL OUT =       2.2745E-04             TOTAL OUT =       2.4000E-04

            IN - OUT =           0.0000              IN - OUT =      -1.4552E-11

 PERCENT DISCREPANCY =           0.00     PERCENT DISCREPANCY =           0.00






         TIME SUMMARY AT END OF TIME STEP    1 IN STRESS PERIOD   65
                    SECONDS     MINUTES      HOURS       DAYS        YEARS
                    -----------------------------------------------------------
   TIME STEP LENGTH  1259.7      20.995     0.34992     1.45800E-02 3.99179E-05
 STRESS PERIOD TIME  1259.7      20.995     0.34992     1.45800E-02 3.99179E-05
         TOTAL TIME  81881.      1364.7      22.745     0.94770     2.59466E-03
1
1
                            STRESS PERIOD NO.   66, LENGTH =  0.1458000E-01
                            -----------------------------------------------

                              NUMBER OF TIME STEPS =     1

                               MULTIPLIER FOR DELT =     1.000

                            INITIAL TIME STEP SIZE =  0.1458000E-01

 WELL NO.  LAYER   ROW   COL   STRESS RATE         
 --------------------------------------------------
      1      1      1      1      0.2400E-03

      1 WELL 
 
 SOLVING FOR HEAD 

 OUTPUT CONTROL FOR STRESS PERIOD   66   TIME STEP    1
    SAVE HEAD FOR ALL LAYERS
    SAVE BUDGET
 UBDSV1 SAVING "         STORAGE" ON UNIT  31 AT TIME STEP  1, STRESS PERIOD  66
 UBDSV2 SAVING "   CONSTANT HEAD" ON UNIT  31 AT TIME STEP  1, STRESS PERIOD  66
 UBDSV1 SAVING "FLOW RIGHT FACE " ON UNIT  31 AT TIME STEP  1, STRESS PERIOD  66
 UBDSV4 SAVING "           WELLS" ON UNIT  31 AT TIME STEP  1, STRESS PERIOD  66

 SAVING SATURATED THICKNESS AND FLOW TERMS ON UNIT  333 FOR MT3DMS
 BY THE LINK-MT3DMS PACKAGE V7 AT TIME STEP    1, STRESS PERIOD   66


 HEAD WILL BE SAVED ON UNIT   30 AT END OF TIME STEP    1, STRESS PERIOD   66
1
  VOLUMETRIC BUDGET FOR ENTIRE MODEL AT END OF TIME STEP    1, STRESS PERIOD  66
  ------------------------------------------------------------------------------

     CUMULATIVE VOLUMES      L**3       RATES FOR THIS TIME STEP      L**3/T
     ------------------                 ------------------------

           IN:                                      IN:
           ---                                      ---
             STORAGE =           0.0000               STORAGE =           0.0000
       CONSTANT HEAD =           0.0000         CONSTANT HEAD =           0.0000
               WELLS =       2.3095E-04                 WELLS =       2.4000E-04

            TOTAL IN =       2.3095E-04              TOTAL IN =       2.4000E-04

          OUT:                                     OUT:
          ----                                     ----
             STORAGE =           0.0000               STORAGE =           0.0000
       CONSTANT HEAD =       2.3095E-04         CONSTANT HEAD =       2.4000E-04
               WELLS =           0.0000                 WELLS =           0.0000

           TOTAL OUT =       2.3095E-04             TOTAL OUT =       2.4000E-04

            IN - OUT =           0.0000              IN - OUT =      -1.4552E-11

 PERCENT DISCREPANCY =           0.00     PERCENT DISCREPANCY =           0.00






         TIME SUMMARY AT END OF TIME STEP    1 IN STRESS PERIOD   66
                    SECONDS     MINUTES      HOURS       DAYS        YEARS
                    -----------------------------------------------------------
   TIME STEP LENGTH  1259.7      20.995     0.34992     1.45800E-02 3.99179E-05
 STRESS PERIOD TIME  1259.7      20.995     0.34992     1.45800E-02 3.99179E-05
         TOTAL TIME  83141.      1385.7      23.095     0.96228     2.63458E-03
1
1
                            STRESS PERIOD NO.   67, LENGTH =  0.1458000E-01
                            -----------------------------------------------

                              NUMBER OF TIME STEPS =     1

                               MULTIPLIER FOR DELT =     1.000

                            INITIAL TIME STEP SIZE =  0.1458000E-01

 WELL NO.  LAYER   ROW   COL   STRESS RATE         
 --------------------------------------------------
      1      1      1      1      0.2400E-03

      1 WELL 
 
 SOLVING FOR HEAD 

 OUTPUT CONTROL FOR STRESS PERIOD   67   TIME STEP    1
    SAVE HEAD FOR ALL LAYERS
    SAVE BUDGET
 UBDSV1 SAVING "         STORAGE" ON UNIT  31 AT TIME STEP  1, STRESS PERIOD  67
 UBDSV2 SAVING "   CONSTANT HEAD" ON UNIT  31 AT TIME STEP  1, STRESS PERIOD  67
 UBDSV1 SAVING "FLOW RIGHT FACE " ON UNIT  31 AT TIME STEP  1, STRESS PERIOD  67
 UBDSV4 SAVING "           WELLS" ON UNIT  31 AT TIME STEP  1, STRESS PERIOD  67

 SAVING SATURATED THICKNESS AND FLOW TERMS ON UNIT  333 FOR MT3DMS
 BY THE LINK-MT3DMS PACKAGE V7 AT TIME STEP    1, STRESS PERIOD   67


 HEAD WILL BE SAVED ON UNIT   30 AT END OF TIME STEP    1, STRESS PERIOD   67
1
  VOLUMETRIC BUDGET FOR ENTIRE MODEL AT END OF TIME STEP    1, STRESS PERIOD  67
  ------------------------------------------------------------------------------

     CUMULATIVE VOLUMES      L**3       RATES FOR THIS TIME STEP      L**3/T
     ------------------                 ------------------------

           IN:                                      IN:
           ---                                      ---
             STORAGE =           0.0000               STORAGE =           0.0000
       CONSTANT HEAD =           0.0000         CONSTANT HEAD =           0.0000
               WELLS =       2.3445E-04                 WELLS =       2.4000E-04

            TOTAL IN =       2.3445E-04              TOTAL IN =       2.4000E-04

          OUT:                                     OUT:
          ----                                     ----
             STORAGE =           0.0000               STORAGE =           0.0000
       CONSTANT HEAD =       2.3445E-04         CONSTANT HEAD =       2.4000E-04
               WELLS =           0.0000                 WELLS =           0.0000

           TOTAL OUT =       2.3445E-04             TOTAL OUT =       2.4000E-04

            IN - OUT =           0.0000              IN - OUT =      -1.4552E-11

 PERCENT DISCREPANCY =           0.00     PERCENT DISCREPANCY =           0.00






         TIME SUMMARY AT END OF TIME STEP    1 IN STRESS PERIOD   67
                    SECONDS     MINUTES      HOURS       DAYS        YEARS
                    -----------------------------------------------------------
   TIME STEP LENGTH  1259.7      20.995     0.34992     1.45800E-02 3.99179E-05
 STRESS PERIOD TIME  1259.7      20.995     0.34992     1.45800E-02 3.99179E-05
         TOTAL TIME  84401.      1406.7      23.445     0.97686     2.67450E-03
1
1
                            STRESS PERIOD NO.   68, LENGTH =  0.1458000E-01
                            -----------------------------------------------

                              NUMBER OF TIME STEPS =     1

                               MULTIPLIER FOR DELT =     1.000

                            INITIAL TIME STEP SIZE =  0.1458000E-01

 WELL NO.  LAYER   ROW   COL   STRESS RATE         
 --------------------------------------------------
      1      1      1      1      0.2400E-03

      1 WELL 
 
 SOLVING FOR HEAD 

 OUTPUT CONTROL FOR STRESS PERIOD   68   TIME STEP    1
    SAVE HEAD FOR ALL LAYERS
    SAVE BUDGET
 UBDSV1 SAVING "         STORAGE" ON UNIT  31 AT TIME STEP  1, STRESS PERIOD  68
 UBDSV2 SAVING "   CONSTANT HEAD" ON UNIT  31 AT TIME STEP  1, STRESS PERIOD  68
 UBDSV1 SAVING "FLOW RIGHT FACE " ON UNIT  31 AT TIME STEP  1, STRESS PERIOD  68
 UBDSV4 SAVING "           WELLS" ON UNIT  31 AT TIME STEP  1, STRESS PERIOD  68

 SAVING SATURATED THICKNESS AND FLOW TERMS ON UNIT  333 FOR MT3DMS
 BY THE LINK-MT3DMS PACKAGE V7 AT TIME STEP    1, STRESS PERIOD   68


 HEAD WILL BE SAVED ON UNIT   30 AT END OF TIME STEP    1, STRESS PERIOD   68
1
  VOLUMETRIC BUDGET FOR ENTIRE MODEL AT END OF TIME STEP    1, STRESS PERIOD  68
  ------------------------------------------------------------------------------

     CUMULATIVE VOLUMES      L**3       RATES FOR THIS TIME STEP      L**3/T
     ------------------                 ------------------------

           IN:                                      IN:
           ---                                      ---
             STORAGE =           0.0000               STORAGE =           0.0000
       CONSTANT HEAD =           0.0000         CONSTANT HEAD =           0.0000
               WELLS =       2.3795E-04                 WELLS =       2.4000E-04

            TOTAL IN =       2.3795E-04              TOTAL IN =       2.4000E-04

          OUT:                                     OUT:
          ----                                     ----
             STORAGE =           0.0000               STORAGE =           0.0000
       CONSTANT HEAD =       2.3795E-04         CONSTANT HEAD =       2.4000E-04
               WELLS =           0.0000                 WELLS =           0.0000

           TOTAL OUT =       2.3795E-04             TOTAL OUT =       2.4000E-04

            IN - OUT =           0.0000              IN - OUT =      -1.4552E-11

 PERCENT DISCREPANCY =           0.00     PERCENT DISCREPANCY =           0.00






         TIME SUMMARY AT END OF TIME STEP    1 IN STRESS PERIOD   68
                    SECONDS     MINUTES      HOURS       DAYS        YEARS
                    -----------------------------------------------------------
   TIME STEP LENGTH  1259.7      20.995     0.34992     1.45800E-02 3.99179E-05
 STRESS PERIOD TIME  1259.7      20.995     0.34992     1.45800E-02 3.99179E-05
         TOTAL TIME  85660.      1427.7      23.795     0.99144     2.71442E-03
1
1
                            STRESS PERIOD NO.   69, LENGTH =  0.1458000E-01
                            -----------------------------------------------

                              NUMBER OF TIME STEPS =     1

                               MULTIPLIER FOR DELT =     1.000

                            INITIAL TIME STEP SIZE =  0.1458000E-01

 WELL NO.  LAYER   ROW   COL   STRESS RATE         
 --------------------------------------------------
      1      1      1      1      0.2400E-03

      1 WELL 
 
 SOLVING FOR HEAD 

 OUTPUT CONTROL FOR STRESS PERIOD   69   TIME STEP    1
    SAVE HEAD FOR ALL LAYERS
    SAVE BUDGET
 UBDSV1 SAVING "         STORAGE" ON UNIT  31 AT TIME STEP  1, STRESS PERIOD  69
 UBDSV2 SAVING "   CONSTANT HEAD" ON UNIT  31 AT TIME STEP  1, STRESS PERIOD  69
 UBDSV1 SAVING "FLOW RIGHT FACE " ON UNIT  31 AT TIME STEP  1, STRESS PERIOD  69
 UBDSV4 SAVING "           WELLS" ON UNIT  31 AT TIME STEP  1, STRESS PERIOD  69

 SAVING SATURATED THICKNESS AND FLOW TERMS ON UNIT  333 FOR MT3DMS
 BY THE LINK-MT3DMS PACKAGE V7 AT TIME STEP    1, STRESS PERIOD   69


 HEAD WILL BE SAVED ON UNIT   30 AT END OF TIME STEP    1, STRESS PERIOD   69
1
  VOLUMETRIC BUDGET FOR ENTIRE MODEL AT END OF TIME STEP    1, STRESS PERIOD  69
  ------------------------------------------------------------------------------

     CUMULATIVE VOLUMES      L**3       RATES FOR THIS TIME STEP      L**3/T
     ------------------                 ------------------------

           IN:                                      IN:
           ---                                      ---
             STORAGE =           0.0000               STORAGE =           0.0000
       CONSTANT HEAD =           0.0000         CONSTANT HEAD =           0.0000
               WELLS =       2.4144E-04                 WELLS =       2.4000E-04

            TOTAL IN =       2.4144E-04              TOTAL IN =       2.4000E-04

          OUT:                                     OUT:
          ----                                     ----
             STORAGE =           0.0000               STORAGE =           0.0000
       CONSTANT HEAD =       2.4144E-04         CONSTANT HEAD =       2.4000E-04
               WELLS =           0.0000                 WELLS =           0.0000

           TOTAL OUT =       2.4144E-04             TOTAL OUT =       2.4000E-04

            IN - OUT =           0.0000              IN - OUT =      -1.4552E-11

 PERCENT DISCREPANCY =           0.00     PERCENT DISCREPANCY =           0.00






         TIME SUMMARY AT END OF TIME STEP    1 IN STRESS PERIOD   69
                    SECONDS     MINUTES      HOURS       DAYS        YEARS
                    -----------------------------------------------------------
   TIME STEP LENGTH  1259.7      20.995     0.34992     1.45800E-02 3.99179E-05
 STRESS PERIOD TIME  1259.7      20.995     0.34992     1.45800E-02 3.99179E-05
         TOTAL TIME  86920.      1448.7      24.144      1.0060     2.75433E-03
1
1
                            STRESS PERIOD NO.   70, LENGTH =  0.1458000E-01
                            -----------------------------------------------

                              NUMBER OF TIME STEPS =     1

                               MULTIPLIER FOR DELT =     1.000

                            INITIAL TIME STEP SIZE =  0.1458000E-01

 WELL NO.  LAYER   ROW   COL   STRESS RATE         
 --------------------------------------------------
      1      1      1      1      0.2400E-03

      1 WELL 
 
 SOLVING FOR HEAD 

 OUTPUT CONTROL FOR STRESS PERIOD   70   TIME STEP    1
    SAVE HEAD FOR ALL LAYERS
    SAVE BUDGET
 UBDSV1 SAVING "         STORAGE" ON UNIT  31 AT TIME STEP  1, STRESS PERIOD  70
 UBDSV2 SAVING "   CONSTANT HEAD" ON UNIT  31 AT TIME STEP  1, STRESS PERIOD  70
 UBDSV1 SAVING "FLOW RIGHT FACE " ON UNIT  31 AT TIME STEP  1, STRESS PERIOD  70
 UBDSV4 SAVING "           WELLS" ON UNIT  31 AT TIME STEP  1, STRESS PERIOD  70

 SAVING SATURATED THICKNESS AND FLOW TERMS ON UNIT  333 FOR MT3DMS
 BY THE LINK-MT3DMS PACKAGE V7 AT TIME STEP    1, STRESS PERIOD   70


 HEAD WILL BE SAVED ON UNIT   30 AT END OF TIME STEP    1, STRESS PERIOD   70
1
  VOLUMETRIC BUDGET FOR ENTIRE MODEL AT END OF TIME STEP    1, STRESS PERIOD  70
  ------------------------------------------------------------------------------

     CUMULATIVE VOLUMES      L**3       RATES FOR THIS TIME STEP      L**3/T
     ------------------                 ------------------------

           IN:                                      IN:
           ---                                      ---
             STORAGE =           0.0000               STORAGE =           0.0000
       CONSTANT HEAD =           0.0000         CONSTANT HEAD =           0.0000
               WELLS =       2.4494E-04                 WELLS =       2.4000E-04

            TOTAL IN =       2.4494E-04              TOTAL IN =       2.4000E-04

          OUT:                                     OUT:
          ----                                     ----
             STORAGE =           0.0000               STORAGE =           0.0000
       CONSTANT HEAD =       2.4494E-04         CONSTANT HEAD =       2.4000E-04
               WELLS =           0.0000                 WELLS =           0.0000

           TOTAL OUT =       2.4494E-04             TOTAL OUT =       2.4000E-04

            IN - OUT =           0.0000              IN - OUT =      -1.4552E-11

 PERCENT DISCREPANCY =           0.00     PERCENT DISCREPANCY =           0.00






         TIME SUMMARY AT END OF TIME STEP    1 IN STRESS PERIOD   70
                    SECONDS     MINUTES      HOURS       DAYS        YEARS
                    -----------------------------------------------------------
   TIME STEP LENGTH  1259.7      20.995     0.34992     1.45800E-02 3.99179E-05
 STRESS PERIOD TIME  1259.7      20.995     0.34992     1.45800E-02 3.99179E-05
         TOTAL TIME  88180.      1469.7      24.494      1.0206     2.79425E-03
1
1
                            STRESS PERIOD NO.   71, LENGTH =  0.1458000E-01
                            -----------------------------------------------

                              NUMBER OF TIME STEPS =     1

                               MULTIPLIER FOR DELT =     1.000

                            INITIAL TIME STEP SIZE =  0.1458000E-01

 WELL NO.  LAYER   ROW   COL   STRESS RATE         
 --------------------------------------------------
      1      1      1      1      0.2400E-03

      1 WELL 
 
 SOLVING FOR HEAD 

 OUTPUT CONTROL FOR STRESS PERIOD   71   TIME STEP    1
    SAVE HEAD FOR ALL LAYERS
    SAVE BUDGET
 UBDSV1 SAVING "         STORAGE" ON UNIT  31 AT TIME STEP  1, STRESS PERIOD  71
 UBDSV2 SAVING "   CONSTANT HEAD" ON UNIT  31 AT TIME STEP  1, STRESS PERIOD  71
 UBDSV1 SAVING "FLOW RIGHT FACE " ON UNIT  31 AT TIME STEP  1, STRESS PERIOD  71
 UBDSV4 SAVING "           WELLS" ON UNIT  31 AT TIME STEP  1, STRESS PERIOD  71

 SAVING SATURATED THICKNESS AND FLOW TERMS ON UNIT  333 FOR MT3DMS
 BY THE LINK-MT3DMS PACKAGE V7 AT TIME STEP    1, STRESS PERIOD   71


 HEAD WILL BE SAVED ON UNIT   30 AT END OF TIME STEP    1, STRESS PERIOD   71
1
  VOLUMETRIC BUDGET FOR ENTIRE MODEL AT END OF TIME STEP    1, STRESS PERIOD  71
  ------------------------------------------------------------------------------

     CUMULATIVE VOLUMES      L**3       RATES FOR THIS TIME STEP      L**3/T
     ------------------                 ------------------------

           IN:                                      IN:
           ---                                      ---
             STORAGE =           0.0000               STORAGE =           0.0000
       CONSTANT HEAD =           0.0000         CONSTANT HEAD =           0.0000
               WELLS =       2.4844E-04                 WELLS =       2.4000E-04

            TOTAL IN =       2.4844E-04              TOTAL IN =       2.4000E-04

          OUT:                                     OUT:
          ----                                     ----
             STORAGE =           0.0000               STORAGE =           0.0000
       CONSTANT HEAD =       2.4844E-04         CONSTANT HEAD =       2.4000E-04
               WELLS =           0.0000                 WELLS =           0.0000

           TOTAL OUT =       2.4844E-04             TOTAL OUT =       2.4000E-04

            IN - OUT =           0.0000              IN - OUT =      -1.4552E-11

 PERCENT DISCREPANCY =           0.00     PERCENT DISCREPANCY =           0.00






         TIME SUMMARY AT END OF TIME STEP    1 IN STRESS PERIOD   71
                    SECONDS     MINUTES      HOURS       DAYS        YEARS
                    -----------------------------------------------------------
   TIME STEP LENGTH  1259.7      20.995     0.34992     1.45800E-02 3.99179E-05
 STRESS PERIOD TIME  1259.7      20.995     0.34992     1.45800E-02 3.99179E-05
         TOTAL TIME  89440.      1490.7      24.844      1.0352     2.83417E-03
1
1
                            STRESS PERIOD NO.   72, LENGTH =  0.1458000E-01
                            -----------------------------------------------

                              NUMBER OF TIME STEPS =     1

                               MULTIPLIER FOR DELT =     1.000

                            INITIAL TIME STEP SIZE =  0.1458000E-01

 WELL NO.  LAYER   ROW   COL   STRESS RATE         
 --------------------------------------------------
      1      1      1      1      0.2400E-03

      1 WELL 
 
 SOLVING FOR HEAD 

 OUTPUT CONTROL FOR STRESS PERIOD   72   TIME STEP    1
    SAVE HEAD FOR ALL LAYERS
    SAVE BUDGET
 UBDSV1 SAVING "         STORAGE" ON UNIT  31 AT TIME STEP  1, STRESS PERIOD  72
 UBDSV2 SAVING "   CONSTANT HEAD" ON UNIT  31 AT TIME STEP  1, STRESS PERIOD  72
 UBDSV1 SAVING "FLOW RIGHT FACE " ON UNIT  31 AT TIME STEP  1, STRESS PERIOD  72
 UBDSV4 SAVING "           WELLS" ON UNIT  31 AT TIME STEP  1, STRESS PERIOD  72

 SAVING SATURATED THICKNESS AND FLOW TERMS ON UNIT  333 FOR MT3DMS
 BY THE LINK-MT3DMS PACKAGE V7 AT TIME STEP    1, STRESS PERIOD   72


 HEAD WILL BE SAVED ON UNIT   30 AT END OF TIME STEP    1, STRESS PERIOD   72
1
  VOLUMETRIC BUDGET FOR ENTIRE MODEL AT END OF TIME STEP    1, STRESS PERIOD  72
  ------------------------------------------------------------------------------

     CUMULATIVE VOLUMES      L**3       RATES FOR THIS TIME STEP      L**3/T
     ------------------                 ------------------------

           IN:                                      IN:
           ---                                      ---
             STORAGE =           0.0000               STORAGE =           0.0000
       CONSTANT HEAD =           0.0000         CONSTANT HEAD =           0.0000
               WELLS =       2.5194E-04                 WELLS =       2.4000E-04

            TOTAL IN =       2.5194E-04              TOTAL IN =       2.4000E-04

          OUT:                                     OUT:
          ----                                     ----
             STORAGE =           0.0000               STORAGE =           0.0000
       CONSTANT HEAD =       2.5194E-04         CONSTANT HEAD =       2.4000E-04
               WELLS =           0.0000                 WELLS =           0.0000

           TOTAL OUT =       2.5194E-04             TOTAL OUT =       2.4000E-04

            IN - OUT =           0.0000              IN - OUT =      -1.4552E-11

 PERCENT DISCREPANCY =           0.00     PERCENT DISCREPANCY =           0.00






         TIME SUMMARY AT END OF TIME STEP    1 IN STRESS PERIOD   72
                    SECONDS     MINUTES      HOURS       DAYS        YEARS
                    -----------------------------------------------------------
   TIME STEP LENGTH  1259.7      20.995     0.34992     1.45800E-02 3.99179E-05
 STRESS PERIOD TIME  1259.7      20.995     0.34992     1.45800E-02 3.99179E-05
         TOTAL TIME  90699.      1511.7      25.194      1.0498     2.87409E-03
1
1
                            STRESS PERIOD NO.   73, LENGTH =  0.1458000E-01
                            -----------------------------------------------

                              NUMBER OF TIME STEPS =     1

                               MULTIPLIER FOR DELT =     1.000

                            INITIAL TIME STEP SIZE =  0.1458000E-01

 WELL NO.  LAYER   ROW   COL   STRESS RATE         
 --------------------------------------------------
      1      1      1      1      0.2400E-03

      1 WELL 
 
 SOLVING FOR HEAD 

 OUTPUT CONTROL FOR STRESS PERIOD   73   TIME STEP    1
    SAVE HEAD FOR ALL LAYERS
    SAVE BUDGET
 UBDSV1 SAVING "         STORAGE" ON UNIT  31 AT TIME STEP  1, STRESS PERIOD  73
 UBDSV2 SAVING "   CONSTANT HEAD" ON UNIT  31 AT TIME STEP  1, STRESS PERIOD  73
 UBDSV1 SAVING "FLOW RIGHT FACE " ON UNIT  31 AT TIME STEP  1, STRESS PERIOD  73
 UBDSV4 SAVING "           WELLS" ON UNIT  31 AT TIME STEP  1, STRESS PERIOD  73

 SAVING SATURATED THICKNESS AND FLOW TERMS ON UNIT  333 FOR MT3DMS
 BY THE LINK-MT3DMS PACKAGE V7 AT TIME STEP    1, STRESS PERIOD   73


 HEAD WILL BE SAVED ON UNIT   30 AT END OF TIME STEP    1, STRESS PERIOD   73
1
  VOLUMETRIC BUDGET FOR ENTIRE MODEL AT END OF TIME STEP    1, STRESS PERIOD  73
  ------------------------------------------------------------------------------

     CUMULATIVE VOLUMES      L**3       RATES FOR THIS TIME STEP      L**3/T
     ------------------                 ------------------------

           IN:                                      IN:
           ---                                      ---
             STORAGE =           0.0000               STORAGE =           0.0000
       CONSTANT HEAD =           0.0000         CONSTANT HEAD =           0.0000
               WELLS =       2.5544E-04                 WELLS =       2.4000E-04

            TOTAL IN =       2.5544E-04              TOTAL IN =       2.4000E-04

          OUT:                                     OUT:
          ----                                     ----
             STORAGE =           0.0000               STORAGE =           0.0000
       CONSTANT HEAD =       2.5544E-04         CONSTANT HEAD =       2.4000E-04
               WELLS =           0.0000                 WELLS =           0.0000

           TOTAL OUT =       2.5544E-04             TOTAL OUT =       2.4000E-04

            IN - OUT =           0.0000              IN - OUT =      -1.4552E-11

 PERCENT DISCREPANCY =           0.00     PERCENT DISCREPANCY =           0.00






         TIME SUMMARY AT END OF TIME STEP    1 IN STRESS PERIOD   73
                    SECONDS     MINUTES      HOURS       DAYS        YEARS
                    -----------------------------------------------------------
   TIME STEP LENGTH  1259.7      20.995     0.34992     1.45800E-02 3.99179E-05
 STRESS PERIOD TIME  1259.7      20.995     0.34992     1.45800E-02 3.99179E-05
         TOTAL TIME  91959.      1532.7      25.544      1.0643     2.91401E-03
1
1
                            STRESS PERIOD NO.   74, LENGTH =  0.1458000E-01
                            -----------------------------------------------

                              NUMBER OF TIME STEPS =     1

                               MULTIPLIER FOR DELT =     1.000

                            INITIAL TIME STEP SIZE =  0.1458000E-01

 WELL NO.  LAYER   ROW   COL   STRESS RATE         
 --------------------------------------------------
      1      1      1      1      0.2400E-03

      1 WELL 
 
 SOLVING FOR HEAD 

 OUTPUT CONTROL FOR STRESS PERIOD   74   TIME STEP    1
    SAVE HEAD FOR ALL LAYERS
    SAVE BUDGET
 UBDSV1 SAVING "         STORAGE" ON UNIT  31 AT TIME STEP  1, STRESS PERIOD  74
 UBDSV2 SAVING "   CONSTANT HEAD" ON UNIT  31 AT TIME STEP  1, STRESS PERIOD  74
 UBDSV1 SAVING "FLOW RIGHT FACE " ON UNIT  31 AT TIME STEP  1, STRESS PERIOD  74
 UBDSV4 SAVING "           WELLS" ON UNIT  31 AT TIME STEP  1, STRESS PERIOD  74

 SAVING SATURATED THICKNESS AND FLOW TERMS ON UNIT  333 FOR MT3DMS
 BY THE LINK-MT3DMS PACKAGE V7 AT TIME STEP    1, STRESS PERIOD   74


 HEAD WILL BE SAVED ON UNIT   30 AT END OF TIME STEP    1, STRESS PERIOD   74
1
  VOLUMETRIC BUDGET FOR ENTIRE MODEL AT END OF TIME STEP    1, STRESS PERIOD  74
  ------------------------------------------------------------------------------

     CUMULATIVE VOLUMES      L**3       RATES FOR THIS TIME STEP      L**3/T
     ------------------                 ------------------------

           IN:                                      IN:
           ---                                      ---
             STORAGE =           0.0000               STORAGE =           0.0000
       CONSTANT HEAD =           0.0000         CONSTANT HEAD =           0.0000
               WELLS =       2.5894E-04                 WELLS =       2.4000E-04

            TOTAL IN =       2.5894E-04              TOTAL IN =       2.4000E-04

          OUT:                                     OUT:
          ----                                     ----
             STORAGE =           0.0000               STORAGE =           0.0000
       CONSTANT HEAD =       2.5894E-04         CONSTANT HEAD =       2.4000E-04
               WELLS =           0.0000                 WELLS =           0.0000

           TOTAL OUT =       2.5894E-04             TOTAL OUT =       2.4000E-04

            IN - OUT =           0.0000              IN - OUT =      -1.4552E-11

 PERCENT DISCREPANCY =           0.00     PERCENT DISCREPANCY =           0.00






         TIME SUMMARY AT END OF TIME STEP    1 IN STRESS PERIOD   74
                    SECONDS     MINUTES      HOURS       DAYS        YEARS
                    -----------------------------------------------------------
   TIME STEP LENGTH  1259.7      20.995     0.34992     1.45800E-02 3.99179E-05
 STRESS PERIOD TIME  1259.7      20.995     0.34992     1.45800E-02 3.99179E-05
         TOTAL TIME  93219.      1553.6      25.894      1.0789     2.95392E-03
1
1
                            STRESS PERIOD NO.   75, LENGTH =  0.1458000E-01
                            -----------------------------------------------

                              NUMBER OF TIME STEPS =     1

                               MULTIPLIER FOR DELT =     1.000

                            INITIAL TIME STEP SIZE =  0.1458000E-01

 WELL NO.  LAYER   ROW   COL   STRESS RATE         
 --------------------------------------------------
      1      1      1      1      0.2400E-03

      1 WELL 
 
 SOLVING FOR HEAD 

 OUTPUT CONTROL FOR STRESS PERIOD   75   TIME STEP    1
    SAVE HEAD FOR ALL LAYERS
    SAVE BUDGET
 UBDSV1 SAVING "         STORAGE" ON UNIT  31 AT TIME STEP  1, STRESS PERIOD  75
 UBDSV2 SAVING "   CONSTANT HEAD" ON UNIT  31 AT TIME STEP  1, STRESS PERIOD  75
 UBDSV1 SAVING "FLOW RIGHT FACE " ON UNIT  31 AT TIME STEP  1, STRESS PERIOD  75
 UBDSV4 SAVING "           WELLS" ON UNIT  31 AT TIME STEP  1, STRESS PERIOD  75

 SAVING SATURATED THICKNESS AND FLOW TERMS ON UNIT  333 FOR MT3DMS
 BY THE LINK-MT3DMS PACKAGE V7 AT TIME STEP    1, STRESS PERIOD   75


 HEAD WILL BE SAVED ON UNIT   30 AT END OF TIME STEP    1, STRESS PERIOD   75
1
  VOLUMETRIC BUDGET FOR ENTIRE MODEL AT END OF TIME STEP    1, STRESS PERIOD  75
  ------------------------------------------------------------------------------

     CUMULATIVE VOLUMES      L**3       RATES FOR THIS TIME STEP      L**3/T
     ------------------                 ------------------------

           IN:                                      IN:
           ---                                      ---
             STORAGE =           0.0000               STORAGE =           0.0000
       CONSTANT HEAD =           0.0000         CONSTANT HEAD =           0.0000
               WELLS =       2.6244E-04                 WELLS =       2.4000E-04

            TOTAL IN =       2.6244E-04              TOTAL IN =       2.4000E-04

          OUT:                                     OUT:
          ----                                     ----
             STORAGE =           0.0000               STORAGE =           0.0000
       CONSTANT HEAD =       2.6244E-04         CONSTANT HEAD =       2.4000E-04
               WELLS =           0.0000                 WELLS =           0.0000

           TOTAL OUT =       2.6244E-04             TOTAL OUT =       2.4000E-04

            IN - OUT =           0.0000              IN - OUT =      -1.4552E-11

 PERCENT DISCREPANCY =           0.00     PERCENT DISCREPANCY =           0.00






         TIME SUMMARY AT END OF TIME STEP    1 IN STRESS PERIOD   75
                    SECONDS     MINUTES      HOURS       DAYS        YEARS
                    -----------------------------------------------------------
   TIME STEP LENGTH  1259.7      20.995     0.34992     1.45800E-02 3.99179E-05
 STRESS PERIOD TIME  1259.7      20.995     0.34992     1.45800E-02 3.99179E-05
         TOTAL TIME  94478.      1574.6      26.244      1.0935     2.99384E-03
1
1
                            STRESS PERIOD NO.   76, LENGTH =  0.1458000E-01
                            -----------------------------------------------

                              NUMBER OF TIME STEPS =     1

                               MULTIPLIER FOR DELT =     1.000

                            INITIAL TIME STEP SIZE =  0.1458000E-01

 WELL NO.  LAYER   ROW   COL   STRESS RATE         
 --------------------------------------------------
      1      1      1      1      0.2400E-03

      1 WELL 
 
 SOLVING FOR HEAD 

 OUTPUT CONTROL FOR STRESS PERIOD   76   TIME STEP    1
    SAVE HEAD FOR ALL LAYERS
    SAVE BUDGET
 UBDSV1 SAVING "         STORAGE" ON UNIT  31 AT TIME STEP  1, STRESS PERIOD  76
 UBDSV2 SAVING "   CONSTANT HEAD" ON UNIT  31 AT TIME STEP  1, STRESS PERIOD  76
 UBDSV1 SAVING "FLOW RIGHT FACE " ON UNIT  31 AT TIME STEP  1, STRESS PERIOD  76
 UBDSV4 SAVING "           WELLS" ON UNIT  31 AT TIME STEP  1, STRESS PERIOD  76

 SAVING SATURATED THICKNESS AND FLOW TERMS ON UNIT  333 FOR MT3DMS
 BY THE LINK-MT3DMS PACKAGE V7 AT TIME STEP    1, STRESS PERIOD   76


 HEAD WILL BE SAVED ON UNIT   30 AT END OF TIME STEP    1, STRESS PERIOD   76
1
  VOLUMETRIC BUDGET FOR ENTIRE MODEL AT END OF TIME STEP    1, STRESS PERIOD  76
  ------------------------------------------------------------------------------

     CUMULATIVE VOLUMES      L**3       RATES FOR THIS TIME STEP      L**3/T
     ------------------                 ------------------------

           IN:                                      IN:
           ---                                      ---
             STORAGE =           0.0000               STORAGE =           0.0000
       CONSTANT HEAD =           0.0000         CONSTANT HEAD =           0.0000
               WELLS =       2.6594E-04                 WELLS =       2.4000E-04

            TOTAL IN =       2.6594E-04              TOTAL IN =       2.4000E-04

          OUT:                                     OUT:
          ----                                     ----
             STORAGE =           0.0000               STORAGE =           0.0000
       CONSTANT HEAD =       2.6594E-04         CONSTANT HEAD =       2.4000E-04
               WELLS =           0.0000                 WELLS =           0.0000

           TOTAL OUT =       2.6594E-04             TOTAL OUT =       2.4000E-04

            IN - OUT =           0.0000              IN - OUT =      -1.4552E-11

 PERCENT DISCREPANCY =           0.00     PERCENT DISCREPANCY =           0.00






         TIME SUMMARY AT END OF TIME STEP    1 IN STRESS PERIOD   76
                    SECONDS     MINUTES      HOURS       DAYS        YEARS
                    -----------------------------------------------------------
   TIME STEP LENGTH  1259.7      20.995     0.34992     1.45800E-02 3.99179E-05
 STRESS PERIOD TIME  1259.7      20.995     0.34992     1.45800E-02 3.99179E-05
         TOTAL TIME  95738.      1595.6      26.594      1.1081     3.03376E-03
1
1
                            STRESS PERIOD NO.   77, LENGTH =  0.1458000E-01
                            -----------------------------------------------

                              NUMBER OF TIME STEPS =     1

                               MULTIPLIER FOR DELT =     1.000

                            INITIAL TIME STEP SIZE =  0.1458000E-01

 WELL NO.  LAYER   ROW   COL   STRESS RATE         
 --------------------------------------------------
      1      1      1      1      0.2400E-03

      1 WELL 
 
 SOLVING FOR HEAD 

 OUTPUT CONTROL FOR STRESS PERIOD   77   TIME STEP    1
    SAVE HEAD FOR ALL LAYERS
    SAVE BUDGET
 UBDSV1 SAVING "         STORAGE" ON UNIT  31 AT TIME STEP  1, STRESS PERIOD  77
 UBDSV2 SAVING "   CONSTANT HEAD" ON UNIT  31 AT TIME STEP  1, STRESS PERIOD  77
 UBDSV1 SAVING "FLOW RIGHT FACE " ON UNIT  31 AT TIME STEP  1, STRESS PERIOD  77
 UBDSV4 SAVING "           WELLS" ON UNIT  31 AT TIME STEP  1, STRESS PERIOD  77

 SAVING SATURATED THICKNESS AND FLOW TERMS ON UNIT  333 FOR MT3DMS
 BY THE LINK-MT3DMS PACKAGE V7 AT TIME STEP    1, STRESS PERIOD   77


 HEAD WILL BE SAVED ON UNIT   30 AT END OF TIME STEP    1, STRESS PERIOD   77
1
  VOLUMETRIC BUDGET FOR ENTIRE MODEL AT END OF TIME STEP    1, STRESS PERIOD  77
  ------------------------------------------------------------------------------

     CUMULATIVE VOLUMES      L**3       RATES FOR THIS TIME STEP      L**3/T
     ------------------                 ------------------------

           IN:                                      IN:
           ---                                      ---
             STORAGE =           0.0000               STORAGE =           0.0000
       CONSTANT HEAD =           0.0000         CONSTANT HEAD =           0.0000
               WELLS =       2.6944E-04                 WELLS =       2.4000E-04

            TOTAL IN =       2.6944E-04              TOTAL IN =       2.4000E-04

          OUT:                                     OUT:
          ----                                     ----
             STORAGE =           0.0000               STORAGE =           0.0000
       CONSTANT HEAD =       2.6944E-04         CONSTANT HEAD =       2.4000E-04
               WELLS =           0.0000                 WELLS =           0.0000

           TOTAL OUT =       2.6944E-04             TOTAL OUT =       2.4000E-04

            IN - OUT =           0.0000              IN - OUT =      -1.4552E-11

 PERCENT DISCREPANCY =           0.00     PERCENT DISCREPANCY =           0.00






         TIME SUMMARY AT END OF TIME STEP    1 IN STRESS PERIOD   77
                    SECONDS     MINUTES      HOURS       DAYS        YEARS
                    -----------------------------------------------------------
   TIME STEP LENGTH  1259.7      20.995     0.34992     1.45800E-02 3.99179E-05
 STRESS PERIOD TIME  1259.7      20.995     0.34992     1.45800E-02 3.99179E-05
         TOTAL TIME  96998.      1616.6      26.944      1.1227     3.07368E-03
1
1
                            STRESS PERIOD NO.   78, LENGTH =  0.1458000E-01
                            -----------------------------------------------

                              NUMBER OF TIME STEPS =     1

                               MULTIPLIER FOR DELT =     1.000

                            INITIAL TIME STEP SIZE =  0.1458000E-01

 WELL NO.  LAYER   ROW   COL   STRESS RATE         
 --------------------------------------------------
      1      1      1      1      0.2400E-03

      1 WELL 
 
 SOLVING FOR HEAD 

 OUTPUT CONTROL FOR STRESS PERIOD   78   TIME STEP    1
    SAVE HEAD FOR ALL LAYERS
    SAVE BUDGET
 UBDSV1 SAVING "         STORAGE" ON UNIT  31 AT TIME STEP  1, STRESS PERIOD  78
 UBDSV2 SAVING "   CONSTANT HEAD" ON UNIT  31 AT TIME STEP  1, STRESS PERIOD  78
 UBDSV1 SAVING "FLOW RIGHT FACE " ON UNIT  31 AT TIME STEP  1, STRESS PERIOD  78
 UBDSV4 SAVING "           WELLS" ON UNIT  31 AT TIME STEP  1, STRESS PERIOD  78

 SAVING SATURATED THICKNESS AND FLOW TERMS ON UNIT  333 FOR MT3DMS
 BY THE LINK-MT3DMS PACKAGE V7 AT TIME STEP    1, STRESS PERIOD   78


 HEAD WILL BE SAVED ON UNIT   30 AT END OF TIME STEP    1, STRESS PERIOD   78
1
  VOLUMETRIC BUDGET FOR ENTIRE MODEL AT END OF TIME STEP    1, STRESS PERIOD  78
  ------------------------------------------------------------------------------

     CUMULATIVE VOLUMES      L**3       RATES FOR THIS TIME STEP      L**3/T
     ------------------                 ------------------------

           IN:                                      IN:
           ---                                      ---
             STORAGE =           0.0000               STORAGE =           0.0000
       CONSTANT HEAD =           0.0000         CONSTANT HEAD =           0.0000
               WELLS =       2.7294E-04                 WELLS =       2.4000E-04

            TOTAL IN =       2.7294E-04              TOTAL IN =       2.4000E-04

          OUT:                                     OUT:
          ----                                     ----
             STORAGE =           0.0000               STORAGE =           0.0000
       CONSTANT HEAD =       2.7294E-04         CONSTANT HEAD =       2.4000E-04
               WELLS =           0.0000                 WELLS =           0.0000

           TOTAL OUT =       2.7294E-04             TOTAL OUT =       2.4000E-04

            IN - OUT =           0.0000              IN - OUT =      -1.4552E-11

 PERCENT DISCREPANCY =           0.00     PERCENT DISCREPANCY =           0.00






         TIME SUMMARY AT END OF TIME STEP    1 IN STRESS PERIOD   78
                    SECONDS     MINUTES      HOURS       DAYS        YEARS
                    -----------------------------------------------------------
   TIME STEP LENGTH  1259.7      20.995     0.34992     1.45800E-02 3.99179E-05
 STRESS PERIOD TIME  1259.7      20.995     0.34992     1.45800E-02 3.99179E-05
         TOTAL TIME  98258.      1637.6      27.294      1.1372     3.11360E-03
1
1
                            STRESS PERIOD NO.   79, LENGTH =  0.1458000E-01
                            -----------------------------------------------

                              NUMBER OF TIME STEPS =     1

                               MULTIPLIER FOR DELT =     1.000

                            INITIAL TIME STEP SIZE =  0.1458000E-01

 WELL NO.  LAYER   ROW   COL   STRESS RATE         
 --------------------------------------------------
      1      1      1      1      0.2400E-03

      1 WELL 
 
 SOLVING FOR HEAD 

 OUTPUT CONTROL FOR STRESS PERIOD   79   TIME STEP    1
    SAVE HEAD FOR ALL LAYERS
    SAVE BUDGET
 UBDSV1 SAVING "         STORAGE" ON UNIT  31 AT TIME STEP  1, STRESS PERIOD  79
 UBDSV2 SAVING "   CONSTANT HEAD" ON UNIT  31 AT TIME STEP  1, STRESS PERIOD  79
 UBDSV1 SAVING "FLOW RIGHT FACE " ON UNIT  31 AT TIME STEP  1, STRESS PERIOD  79
 UBDSV4 SAVING "           WELLS" ON UNIT  31 AT TIME STEP  1, STRESS PERIOD  79

 SAVING SATURATED THICKNESS AND FLOW TERMS ON UNIT  333 FOR MT3DMS
 BY THE LINK-MT3DMS PACKAGE V7 AT TIME STEP    1, STRESS PERIOD   79


 HEAD WILL BE SAVED ON UNIT   30 AT END OF TIME STEP    1, STRESS PERIOD   79
1
  VOLUMETRIC BUDGET FOR ENTIRE MODEL AT END OF TIME STEP    1, STRESS PERIOD  79
  ------------------------------------------------------------------------------

     CUMULATIVE VOLUMES      L**3       RATES FOR THIS TIME STEP      L**3/T
     ------------------                 ------------------------

           IN:                                      IN:
           ---                                      ---
             STORAGE =           0.0000               STORAGE =           0.0000
       CONSTANT HEAD =           0.0000         CONSTANT HEAD =           0.0000
               WELLS =       2.7644E-04                 WELLS =       2.4000E-04

            TOTAL IN =       2.7644E-04              TOTAL IN =       2.4000E-04

          OUT:                                     OUT:
          ----                                     ----
             STORAGE =           0.0000               STORAGE =           0.0000
       CONSTANT HEAD =       2.7644E-04         CONSTANT HEAD =       2.4000E-04
               WELLS =           0.0000                 WELLS =           0.0000

           TOTAL OUT =       2.7644E-04             TOTAL OUT =       2.4000E-04

            IN - OUT =           0.0000              IN - OUT =      -1.4552E-11

 PERCENT DISCREPANCY =           0.00     PERCENT DISCREPANCY =           0.00






         TIME SUMMARY AT END OF TIME STEP    1 IN STRESS PERIOD   79
                    SECONDS     MINUTES      HOURS       DAYS        YEARS
                    -----------------------------------------------------------
   TIME STEP LENGTH  1259.7      20.995     0.34992     1.45800E-02 3.99179E-05
 STRESS PERIOD TIME  1259.7      20.995     0.34992     1.45800E-02 3.99179E-05
         TOTAL TIME  99517.      1658.6      27.644      1.1518     3.15351E-03
1
1
                            STRESS PERIOD NO.   80, LENGTH =  0.1458000E-01
                            -----------------------------------------------

                              NUMBER OF TIME STEPS =     1

                               MULTIPLIER FOR DELT =     1.000

                            INITIAL TIME STEP SIZE =  0.1458000E-01

 WELL NO.  LAYER   ROW   COL   STRESS RATE         
 --------------------------------------------------
      1      1      1      1      0.2400E-03

      1 WELL 
 
 SOLVING FOR HEAD 

 OUTPUT CONTROL FOR STRESS PERIOD   80   TIME STEP    1
    SAVE HEAD FOR ALL LAYERS
    SAVE BUDGET
 UBDSV1 SAVING "         STORAGE" ON UNIT  31 AT TIME STEP  1, STRESS PERIOD  80
 UBDSV2 SAVING "   CONSTANT HEAD" ON UNIT  31 AT TIME STEP  1, STRESS PERIOD  80
 UBDSV1 SAVING "FLOW RIGHT FACE " ON UNIT  31 AT TIME STEP  1, STRESS PERIOD  80
 UBDSV4 SAVING "           WELLS" ON UNIT  31 AT TIME STEP  1, STRESS PERIOD  80

 SAVING SATURATED THICKNESS AND FLOW TERMS ON UNIT  333 FOR MT3DMS
 BY THE LINK-MT3DMS PACKAGE V7 AT TIME STEP    1, STRESS PERIOD   80


 HEAD WILL BE SAVED ON UNIT   30 AT END OF TIME STEP    1, STRESS PERIOD   80
1
  VOLUMETRIC BUDGET FOR ENTIRE MODEL AT END OF TIME STEP    1, STRESS PERIOD  80
  ------------------------------------------------------------------------------

     CUMULATIVE VOLUMES      L**3       RATES FOR THIS TIME STEP      L**3/T
     ------------------                 ------------------------

           IN:                                      IN:
           ---                                      ---
             STORAGE =           0.0000               STORAGE =           0.0000
       CONSTANT HEAD =           0.0000         CONSTANT HEAD =           0.0000
               WELLS =       2.7994E-04                 WELLS =       2.4000E-04

            TOTAL IN =       2.7994E-04              TOTAL IN =       2.4000E-04

          OUT:                                     OUT:
          ----                                     ----
             STORAGE =           0.0000               STORAGE =           0.0000
       CONSTANT HEAD =       2.7994E-04         CONSTANT HEAD =       2.4000E-04
               WELLS =           0.0000                 WELLS =           0.0000

           TOTAL OUT =       2.7994E-04             TOTAL OUT =       2.4000E-04

            IN - OUT =           0.0000              IN - OUT =      -1.4552E-11

 PERCENT DISCREPANCY =           0.00     PERCENT DISCREPANCY =           0.00






         TIME SUMMARY AT END OF TIME STEP    1 IN STRESS PERIOD   80
                    SECONDS     MINUTES      HOURS       DAYS        YEARS
                    -----------------------------------------------------------
   TIME STEP LENGTH  1259.7      20.995     0.34992     1.45800E-02 3.99179E-05
 STRESS PERIOD TIME  1259.7      20.995     0.34992     1.45800E-02 3.99179E-05
         TOTAL TIME 1.00777E+05  1679.6      27.994      1.1664     3.19343E-03
1
1
                            STRESS PERIOD NO.   81, LENGTH =  0.1458000E-01
                            -----------------------------------------------

                              NUMBER OF TIME STEPS =     1

                               MULTIPLIER FOR DELT =     1.000

                            INITIAL TIME STEP SIZE =  0.1458000E-01

 WELL NO.  LAYER   ROW   COL   STRESS RATE         
 --------------------------------------------------
      1      1      1      1      0.2400E-03

      1 WELL 
 
 SOLVING FOR HEAD 

 OUTPUT CONTROL FOR STRESS PERIOD   81   TIME STEP    1
    SAVE HEAD FOR ALL LAYERS
    SAVE BUDGET
 UBDSV1 SAVING "         STORAGE" ON UNIT  31 AT TIME STEP  1, STRESS PERIOD  81
 UBDSV2 SAVING "   CONSTANT HEAD" ON UNIT  31 AT TIME STEP  1, STRESS PERIOD  81
 UBDSV1 SAVING "FLOW RIGHT FACE " ON UNIT  31 AT TIME STEP  1, STRESS PERIOD  81
 UBDSV4 SAVING "           WELLS" ON UNIT  31 AT TIME STEP  1, STRESS PERIOD  81

 SAVING SATURATED THICKNESS AND FLOW TERMS ON UNIT  333 FOR MT3DMS
 BY THE LINK-MT3DMS PACKAGE V7 AT TIME STEP    1, STRESS PERIOD   81


 HEAD WILL BE SAVED ON UNIT   30 AT END OF TIME STEP    1, STRESS PERIOD   81
1
  VOLUMETRIC BUDGET FOR ENTIRE MODEL AT END OF TIME STEP    1, STRESS PERIOD  81
  ------------------------------------------------------------------------------

     CUMULATIVE VOLUMES      L**3       RATES FOR THIS TIME STEP      L**3/T
     ------------------                 ------------------------

           IN:                                      IN:
           ---                                      ---
             STORAGE =           0.0000               STORAGE =           0.0000
       CONSTANT HEAD =           0.0000         CONSTANT HEAD =           0.0000
               WELLS =       2.8344E-04                 WELLS =       2.4000E-04

            TOTAL IN =       2.8344E-04              TOTAL IN =       2.4000E-04

          OUT:                                     OUT:
          ----                                     ----
             STORAGE =           0.0000               STORAGE =           0.0000
       CONSTANT HEAD =       2.8344E-04         CONSTANT HEAD =       2.4000E-04
               WELLS =           0.0000                 WELLS =           0.0000

           TOTAL OUT =       2.8344E-04             TOTAL OUT =       2.4000E-04

            IN - OUT =           0.0000              IN - OUT =      -1.4552E-11

 PERCENT DISCREPANCY =           0.00     PERCENT DISCREPANCY =           0.00






         TIME SUMMARY AT END OF TIME STEP    1 IN STRESS PERIOD   81
                    SECONDS     MINUTES      HOURS       DAYS        YEARS
                    -----------------------------------------------------------
   TIME STEP LENGTH  1259.7      20.995     0.34992     1.45800E-02 3.99179E-05
 STRESS PERIOD TIME  1259.7      20.995     0.34992     1.45800E-02 3.99179E-05
         TOTAL TIME 1.02037E+05  1700.6      28.344      1.1810     3.23335E-03
1
1
                            STRESS PERIOD NO.   82, LENGTH =  0.1458000E-01
                            -----------------------------------------------

                              NUMBER OF TIME STEPS =     1

                               MULTIPLIER FOR DELT =     1.000

                            INITIAL TIME STEP SIZE =  0.1458000E-01

 WELL NO.  LAYER   ROW   COL   STRESS RATE         
 --------------------------------------------------
      1      1      1      1      0.2400E-03

      1 WELL 
 
 SOLVING FOR HEAD 

 OUTPUT CONTROL FOR STRESS PERIOD   82   TIME STEP    1
    SAVE HEAD FOR ALL LAYERS
    SAVE BUDGET
 UBDSV1 SAVING "         STORAGE" ON UNIT  31 AT TIME STEP  1, STRESS PERIOD  82
 UBDSV2 SAVING "   CONSTANT HEAD" ON UNIT  31 AT TIME STEP  1, STRESS PERIOD  82
 UBDSV1 SAVING "FLOW RIGHT FACE " ON UNIT  31 AT TIME STEP  1, STRESS PERIOD  82
 UBDSV4 SAVING "           WELLS" ON UNIT  31 AT TIME STEP  1, STRESS PERIOD  82

 SAVING SATURATED THICKNESS AND FLOW TERMS ON UNIT  333 FOR MT3DMS
 BY THE LINK-MT3DMS PACKAGE V7 AT TIME STEP    1, STRESS PERIOD   82


 HEAD WILL BE SAVED ON UNIT   30 AT END OF TIME STEP    1, STRESS PERIOD   82
1
  VOLUMETRIC BUDGET FOR ENTIRE MODEL AT END OF TIME STEP    1, STRESS PERIOD  82
  ------------------------------------------------------------------------------

     CUMULATIVE VOLUMES      L**3       RATES FOR THIS TIME STEP      L**3/T
     ------------------                 ------------------------

           IN:                                      IN:
           ---                                      ---
             STORAGE =           0.0000               STORAGE =           0.0000
       CONSTANT HEAD =           0.0000         CONSTANT HEAD =           0.0000
               WELLS =       2.8693E-04                 WELLS =       2.4000E-04

            TOTAL IN =       2.8693E-04              TOTAL IN =       2.4000E-04

          OUT:                                     OUT:
          ----                                     ----
             STORAGE =           0.0000               STORAGE =           0.0000
       CONSTANT HEAD =       2.8693E-04         CONSTANT HEAD =       2.4000E-04
               WELLS =           0.0000                 WELLS =           0.0000

           TOTAL OUT =       2.8693E-04             TOTAL OUT =       2.4000E-04

            IN - OUT =           0.0000              IN - OUT =      -1.4552E-11

 PERCENT DISCREPANCY =           0.00     PERCENT DISCREPANCY =           0.00






         TIME SUMMARY AT END OF TIME STEP    1 IN STRESS PERIOD   82
                    SECONDS     MINUTES      HOURS       DAYS        YEARS
                    -----------------------------------------------------------
   TIME STEP LENGTH  1259.7      20.995     0.34992     1.45800E-02 3.99179E-05
 STRESS PERIOD TIME  1259.7      20.995     0.34992     1.45800E-02 3.99179E-05
         TOTAL TIME 1.03296E+05  1721.6      28.693      1.1956     3.27327E-03
1
1
                            STRESS PERIOD NO.   83, LENGTH =  0.1458000E-01
                            -----------------------------------------------

                              NUMBER OF TIME STEPS =     1

                               MULTIPLIER FOR DELT =     1.000

                            INITIAL TIME STEP SIZE =  0.1458000E-01

 WELL NO.  LAYER   ROW   COL   STRESS RATE         
 --------------------------------------------------
      1      1      1      1      0.2400E-03

      1 WELL 
 
 SOLVING FOR HEAD 

 OUTPUT CONTROL FOR STRESS PERIOD   83   TIME STEP    1
    SAVE HEAD FOR ALL LAYERS
    SAVE BUDGET
 UBDSV1 SAVING "         STORAGE" ON UNIT  31 AT TIME STEP  1, STRESS PERIOD  83
 UBDSV2 SAVING "   CONSTANT HEAD" ON UNIT  31 AT TIME STEP  1, STRESS PERIOD  83
 UBDSV1 SAVING "FLOW RIGHT FACE " ON UNIT  31 AT TIME STEP  1, STRESS PERIOD  83
 UBDSV4 SAVING "           WELLS" ON UNIT  31 AT TIME STEP  1, STRESS PERIOD  83

 SAVING SATURATED THICKNESS AND FLOW TERMS ON UNIT  333 FOR MT3DMS
 BY THE LINK-MT3DMS PACKAGE V7 AT TIME STEP    1, STRESS PERIOD   83


 HEAD WILL BE SAVED ON UNIT   30 AT END OF TIME STEP    1, STRESS PERIOD   83
1
  VOLUMETRIC BUDGET FOR ENTIRE MODEL AT END OF TIME STEP    1, STRESS PERIOD  83
  ------------------------------------------------------------------------------

     CUMULATIVE VOLUMES      L**3       RATES FOR THIS TIME STEP      L**3/T
     ------------------                 ------------------------

           IN:                                      IN:
           ---                                      ---
             STORAGE =           0.0000               STORAGE =           0.0000
       CONSTANT HEAD =           0.0000         CONSTANT HEAD =           0.0000
               WELLS =       2.9043E-04                 WELLS =       2.4000E-04

            TOTAL IN =       2.9043E-04              TOTAL IN =       2.4000E-04

          OUT:                                     OUT:
          ----                                     ----
             STORAGE =           0.0000               STORAGE =           0.0000
       CONSTANT HEAD =       2.9043E-04         CONSTANT HEAD =       2.4000E-04
               WELLS =           0.0000                 WELLS =           0.0000

           TOTAL OUT =       2.9043E-04             TOTAL OUT =       2.4000E-04

            IN - OUT =           0.0000              IN - OUT =      -1.4552E-11

 PERCENT DISCREPANCY =           0.00     PERCENT DISCREPANCY =           0.00






         TIME SUMMARY AT END OF TIME STEP    1 IN STRESS PERIOD   83
                    SECONDS     MINUTES      HOURS       DAYS        YEARS
                    -----------------------------------------------------------
   TIME STEP LENGTH  1259.7      20.995     0.34992     1.45800E-02 3.99179E-05
 STRESS PERIOD TIME  1259.7      20.995     0.34992     1.45800E-02 3.99179E-05
         TOTAL TIME 1.04556E+05  1742.6      29.043      1.2101     3.31318E-03
1
1
                            STRESS PERIOD NO.   84, LENGTH =  0.1458000E-01
                            -----------------------------------------------

                              NUMBER OF TIME STEPS =     1

                               MULTIPLIER FOR DELT =     1.000

                            INITIAL TIME STEP SIZE =  0.1458000E-01

 WELL NO.  LAYER   ROW   COL   STRESS RATE         
 --------------------------------------------------
      1      1      1      1      0.2400E-03

      1 WELL 
 
 SOLVING FOR HEAD 

 OUTPUT CONTROL FOR STRESS PERIOD   84   TIME STEP    1
    SAVE HEAD FOR ALL LAYERS
    SAVE BUDGET
 UBDSV1 SAVING "         STORAGE" ON UNIT  31 AT TIME STEP  1, STRESS PERIOD  84
 UBDSV2 SAVING "   CONSTANT HEAD" ON UNIT  31 AT TIME STEP  1, STRESS PERIOD  84
 UBDSV1 SAVING "FLOW RIGHT FACE " ON UNIT  31 AT TIME STEP  1, STRESS PERIOD  84
 UBDSV4 SAVING "           WELLS" ON UNIT  31 AT TIME STEP  1, STRESS PERIOD  84

 SAVING SATURATED THICKNESS AND FLOW TERMS ON UNIT  333 FOR MT3DMS
 BY THE LINK-MT3DMS PACKAGE V7 AT TIME STEP    1, STRESS PERIOD   84


 HEAD WILL BE SAVED ON UNIT   30 AT END OF TIME STEP    1, STRESS PERIOD   84
1
  VOLUMETRIC BUDGET FOR ENTIRE MODEL AT END OF TIME STEP    1, STRESS PERIOD  84
  ------------------------------------------------------------------------------

     CUMULATIVE VOLUMES      L**3       RATES FOR THIS TIME STEP      L**3/T
     ------------------                 ------------------------

           IN:                                      IN:
           ---                                      ---
             STORAGE =           0.0000               STORAGE =           0.0000
       CONSTANT HEAD =           0.0000         CONSTANT HEAD =           0.0000
               WELLS =       2.9393E-04                 WELLS =       2.4000E-04

            TOTAL IN =       2.9393E-04              TOTAL IN =       2.4000E-04

          OUT:                                     OUT:
          ----                                     ----
             STORAGE =           0.0000               STORAGE =           0.0000
       CONSTANT HEAD =       2.9393E-04         CONSTANT HEAD =       2.4000E-04
               WELLS =           0.0000                 WELLS =           0.0000

           TOTAL OUT =       2.9393E-04             TOTAL OUT =       2.4000E-04

            IN - OUT =           0.0000              IN - OUT =      -1.4552E-11

 PERCENT DISCREPANCY =           0.00     PERCENT DISCREPANCY =           0.00






         TIME SUMMARY AT END OF TIME STEP    1 IN STRESS PERIOD   84
                    SECONDS     MINUTES      HOURS       DAYS        YEARS
                    -----------------------------------------------------------
   TIME STEP LENGTH  1259.7      20.995     0.34992     1.45800E-02 3.99179E-05
 STRESS PERIOD TIME  1259.7      20.995     0.34992     1.45800E-02 3.99179E-05
         TOTAL TIME 1.05816E+05  1763.6      29.393      1.2247     3.35310E-03
1
1
                            STRESS PERIOD NO.   85, LENGTH =  0.1458000E-01
                            -----------------------------------------------

                              NUMBER OF TIME STEPS =     1

                               MULTIPLIER FOR DELT =     1.000

                            INITIAL TIME STEP SIZE =  0.1458000E-01

 WELL NO.  LAYER   ROW   COL   STRESS RATE         
 --------------------------------------------------
      1      1      1      1      0.2400E-03

      1 WELL 
 
 SOLVING FOR HEAD 

 OUTPUT CONTROL FOR STRESS PERIOD   85   TIME STEP    1
    SAVE HEAD FOR ALL LAYERS
    SAVE BUDGET
 UBDSV1 SAVING "         STORAGE" ON UNIT  31 AT TIME STEP  1, STRESS PERIOD  85
 UBDSV2 SAVING "   CONSTANT HEAD" ON UNIT  31 AT TIME STEP  1, STRESS PERIOD  85
 UBDSV1 SAVING "FLOW RIGHT FACE " ON UNIT  31 AT TIME STEP  1, STRESS PERIOD  85
 UBDSV4 SAVING "           WELLS" ON UNIT  31 AT TIME STEP  1, STRESS PERIOD  85

 SAVING SATURATED THICKNESS AND FLOW TERMS ON UNIT  333 FOR MT3DMS
 BY THE LINK-MT3DMS PACKAGE V7 AT TIME STEP    1, STRESS PERIOD   85


 HEAD WILL BE SAVED ON UNIT   30 AT END OF TIME STEP    1, STRESS PERIOD   85
1
  VOLUMETRIC BUDGET FOR ENTIRE MODEL AT END OF TIME STEP    1, STRESS PERIOD  85
  ------------------------------------------------------------------------------

     CUMULATIVE VOLUMES      L**3       RATES FOR THIS TIME STEP      L**3/T
     ------------------                 ------------------------

           IN:                                      IN:
           ---                                      ---
             STORAGE =           0.0000               STORAGE =           0.0000
       CONSTANT HEAD =           0.0000         CONSTANT HEAD =           0.0000
               WELLS =       2.9743E-04                 WELLS =       2.4000E-04

            TOTAL IN =       2.9743E-04              TOTAL IN =       2.4000E-04

          OUT:                                     OUT:
          ----                                     ----
             STORAGE =           0.0000               STORAGE =           0.0000
       CONSTANT HEAD =       2.9743E-04         CONSTANT HEAD =       2.4000E-04
               WELLS =           0.0000                 WELLS =           0.0000

           TOTAL OUT =       2.9743E-04             TOTAL OUT =       2.4000E-04

            IN - OUT =           0.0000              IN - OUT =      -1.4552E-11

 PERCENT DISCREPANCY =           0.00     PERCENT DISCREPANCY =           0.00






         TIME SUMMARY AT END OF TIME STEP    1 IN STRESS PERIOD   85
                    SECONDS     MINUTES      HOURS       DAYS        YEARS
                    -----------------------------------------------------------
   TIME STEP LENGTH  1259.7      20.995     0.34992     1.45800E-02 3.99179E-05
 STRESS PERIOD TIME  1259.7      20.995     0.34992     1.45800E-02 3.99179E-05
         TOTAL TIME 1.07076E+05  1784.6      29.743      1.2393     3.39302E-03
1
1
                            STRESS PERIOD NO.   86, LENGTH =  0.1458000E-01
                            -----------------------------------------------

                              NUMBER OF TIME STEPS =     1

                               MULTIPLIER FOR DELT =     1.000

                            INITIAL TIME STEP SIZE =  0.1458000E-01

 WELL NO.  LAYER   ROW   COL   STRESS RATE         
 --------------------------------------------------
      1      1      1      1      0.2400E-03

      1 WELL 
 
 SOLVING FOR HEAD 

 OUTPUT CONTROL FOR STRESS PERIOD   86   TIME STEP    1
    SAVE HEAD FOR ALL LAYERS
    SAVE BUDGET
 UBDSV1 SAVING "         STORAGE" ON UNIT  31 AT TIME STEP  1, STRESS PERIOD  86
 UBDSV2 SAVING "   CONSTANT HEAD" ON UNIT  31 AT TIME STEP  1, STRESS PERIOD  86
 UBDSV1 SAVING "FLOW RIGHT FACE " ON UNIT  31 AT TIME STEP  1, STRESS PERIOD  86
 UBDSV4 SAVING "           WELLS" ON UNIT  31 AT TIME STEP  1, STRESS PERIOD  86

 SAVING SATURATED THICKNESS AND FLOW TERMS ON UNIT  333 FOR MT3DMS
 BY THE LINK-MT3DMS PACKAGE V7 AT TIME STEP    1, STRESS PERIOD   86


 HEAD WILL BE SAVED ON UNIT   30 AT END OF TIME STEP    1, STRESS PERIOD   86
1
  VOLUMETRIC BUDGET FOR ENTIRE MODEL AT END OF TIME STEP    1, STRESS PERIOD  86
  ------------------------------------------------------------------------------

     CUMULATIVE VOLUMES      L**3       RATES FOR THIS TIME STEP      L**3/T
     ------------------                 ------------------------

           IN:                                      IN:
           ---                                      ---
             STORAGE =           0.0000               STORAGE =           0.0000
       CONSTANT HEAD =           0.0000         CONSTANT HEAD =           0.0000
               WELLS =       3.0093E-04                 WELLS =       2.4000E-04

            TOTAL IN =       3.0093E-04              TOTAL IN =       2.4000E-04

          OUT:                                     OUT:
          ----                                     ----
             STORAGE =           0.0000               STORAGE =           0.0000
       CONSTANT HEAD =       3.0093E-04         CONSTANT HEAD =       2.4000E-04
               WELLS =           0.0000                 WELLS =           0.0000

           TOTAL OUT =       3.0093E-04             TOTAL OUT =       2.4000E-04

            IN - OUT =           0.0000              IN - OUT =      -1.4552E-11

 PERCENT DISCREPANCY =           0.00     PERCENT DISCREPANCY =           0.00






         TIME SUMMARY AT END OF TIME STEP    1 IN STRESS PERIOD   86
                    SECONDS     MINUTES      HOURS       DAYS        YEARS
                    -----------------------------------------------------------
   TIME STEP LENGTH  1259.7      20.995     0.34992     1.45800E-02 3.99179E-05
 STRESS PERIOD TIME  1259.7      20.995     0.34992     1.45800E-02 3.99179E-05
         TOTAL TIME 1.08335E+05  1805.6      30.093      1.2539     3.43294E-03
1
1
                            STRESS PERIOD NO.   87, LENGTH =  0.1458000E-01
                            -----------------------------------------------

                              NUMBER OF TIME STEPS =     1

                               MULTIPLIER FOR DELT =     1.000

                            INITIAL TIME STEP SIZE =  0.1458000E-01

 WELL NO.  LAYER   ROW   COL   STRESS RATE         
 --------------------------------------------------
      1      1      1      1      0.2400E-03

      1 WELL 
 
 SOLVING FOR HEAD 

 OUTPUT CONTROL FOR STRESS PERIOD   87   TIME STEP    1
    SAVE HEAD FOR ALL LAYERS
    SAVE BUDGET
 UBDSV1 SAVING "         STORAGE" ON UNIT  31 AT TIME STEP  1, STRESS PERIOD  87
 UBDSV2 SAVING "   CONSTANT HEAD" ON UNIT  31 AT TIME STEP  1, STRESS PERIOD  87
 UBDSV1 SAVING "FLOW RIGHT FACE " ON UNIT  31 AT TIME STEP  1, STRESS PERIOD  87
 UBDSV4 SAVING "           WELLS" ON UNIT  31 AT TIME STEP  1, STRESS PERIOD  87

 SAVING SATURATED THICKNESS AND FLOW TERMS ON UNIT  333 FOR MT3DMS
 BY THE LINK-MT3DMS PACKAGE V7 AT TIME STEP    1, STRESS PERIOD   87


 HEAD WILL BE SAVED ON UNIT   30 AT END OF TIME STEP    1, STRESS PERIOD   87
1
  VOLUMETRIC BUDGET FOR ENTIRE MODEL AT END OF TIME STEP    1, STRESS PERIOD  87
  ------------------------------------------------------------------------------

     CUMULATIVE VOLUMES      L**3       RATES FOR THIS TIME STEP      L**3/T
     ------------------                 ------------------------

           IN:                                      IN:
           ---                                      ---
             STORAGE =           0.0000               STORAGE =           0.0000
       CONSTANT HEAD =           0.0000         CONSTANT HEAD =           0.0000
               WELLS =       3.0443E-04                 WELLS =       2.4000E-04

            TOTAL IN =       3.0443E-04              TOTAL IN =       2.4000E-04

          OUT:                                     OUT:
          ----                                     ----
             STORAGE =           0.0000               STORAGE =           0.0000
       CONSTANT HEAD =       3.0443E-04         CONSTANT HEAD =       2.4000E-04
               WELLS =           0.0000                 WELLS =           0.0000

           TOTAL OUT =       3.0443E-04             TOTAL OUT =       2.4000E-04

            IN - OUT =           0.0000              IN - OUT =      -1.4552E-11

 PERCENT DISCREPANCY =           0.00     PERCENT DISCREPANCY =           0.00






         TIME SUMMARY AT END OF TIME STEP    1 IN STRESS PERIOD   87
                    SECONDS     MINUTES      HOURS       DAYS        YEARS
                    -----------------------------------------------------------
   TIME STEP LENGTH  1259.7      20.995     0.34992     1.45800E-02 3.99179E-05
 STRESS PERIOD TIME  1259.7      20.995     0.34992     1.45800E-02 3.99179E-05
         TOTAL TIME 1.09595E+05  1826.6      30.443      1.2685     3.47286E-03
1
1
                            STRESS PERIOD NO.   88, LENGTH =  0.1458000E-01
                            -----------------------------------------------

                              NUMBER OF TIME STEPS =     1

                               MULTIPLIER FOR DELT =     1.000

                            INITIAL TIME STEP SIZE =  0.1458000E-01

 WELL NO.  LAYER   ROW   COL   STRESS RATE         
 --------------------------------------------------
      1      1      1      1      0.2400E-03

      1 WELL 
 
 SOLVING FOR HEAD 

 OUTPUT CONTROL FOR STRESS PERIOD   88   TIME STEP    1
    SAVE HEAD FOR ALL LAYERS
    SAVE BUDGET
 UBDSV1 SAVING "         STORAGE" ON UNIT  31 AT TIME STEP  1, STRESS PERIOD  88
 UBDSV2 SAVING "   CONSTANT HEAD" ON UNIT  31 AT TIME STEP  1, STRESS PERIOD  88
 UBDSV1 SAVING "FLOW RIGHT FACE " ON UNIT  31 AT TIME STEP  1, STRESS PERIOD  88
 UBDSV4 SAVING "           WELLS" ON UNIT  31 AT TIME STEP  1, STRESS PERIOD  88

 SAVING SATURATED THICKNESS AND FLOW TERMS ON UNIT  333 FOR MT3DMS
 BY THE LINK-MT3DMS PACKAGE V7 AT TIME STEP    1, STRESS PERIOD   88


 HEAD WILL BE SAVED ON UNIT   30 AT END OF TIME STEP    1, STRESS PERIOD   88
1
  VOLUMETRIC BUDGET FOR ENTIRE MODEL AT END OF TIME STEP    1, STRESS PERIOD  88
  ------------------------------------------------------------------------------

     CUMULATIVE VOLUMES      L**3       RATES FOR THIS TIME STEP      L**3/T
     ------------------                 ------------------------

           IN:                                      IN:
           ---                                      ---
             STORAGE =           0.0000               STORAGE =           0.0000
       CONSTANT HEAD =           0.0000         CONSTANT HEAD =           0.0000
               WELLS =       3.0793E-04                 WELLS =       2.4000E-04

            TOTAL IN =       3.0793E-04              TOTAL IN =       2.4000E-04

          OUT:                                     OUT:
          ----                                     ----
             STORAGE =           0.0000               STORAGE =           0.0000
       CONSTANT HEAD =       3.0793E-04         CONSTANT HEAD =       2.4000E-04
               WELLS =           0.0000                 WELLS =           0.0000

           TOTAL OUT =       3.0793E-04             TOTAL OUT =       2.4000E-04

            IN - OUT =           0.0000              IN - OUT =      -1.4552E-11

 PERCENT DISCREPANCY =           0.00     PERCENT DISCREPANCY =           0.00






         TIME SUMMARY AT END OF TIME STEP    1 IN STRESS PERIOD   88
                    SECONDS     MINUTES      HOURS       DAYS        YEARS
                    -----------------------------------------------------------
   TIME STEP LENGTH  1259.7      20.995     0.34992     1.45800E-02 3.99179E-05
 STRESS PERIOD TIME  1259.7      20.995     0.34992     1.45800E-02 3.99179E-05
         TOTAL TIME 1.10855E+05  1847.6      30.793      1.2830     3.51277E-03
1
1
                            STRESS PERIOD NO.   89, LENGTH =  0.1458000E-01
                            -----------------------------------------------

                              NUMBER OF TIME STEPS =     1

                               MULTIPLIER FOR DELT =     1.000

                            INITIAL TIME STEP SIZE =  0.1458000E-01

 WELL NO.  LAYER   ROW   COL   STRESS RATE         
 --------------------------------------------------
      1      1      1      1      0.2400E-03

      1 WELL 
 
 SOLVING FOR HEAD 

 OUTPUT CONTROL FOR STRESS PERIOD   89   TIME STEP    1
    SAVE HEAD FOR ALL LAYERS
    SAVE BUDGET
 UBDSV1 SAVING "         STORAGE" ON UNIT  31 AT TIME STEP  1, STRESS PERIOD  89
 UBDSV2 SAVING "   CONSTANT HEAD" ON UNIT  31 AT TIME STEP  1, STRESS PERIOD  89
 UBDSV1 SAVING "FLOW RIGHT FACE " ON UNIT  31 AT TIME STEP  1, STRESS PERIOD  89
 UBDSV4 SAVING "           WELLS" ON UNIT  31 AT TIME STEP  1, STRESS PERIOD  89

 SAVING SATURATED THICKNESS AND FLOW TERMS ON UNIT  333 FOR MT3DMS
 BY THE LINK-MT3DMS PACKAGE V7 AT TIME STEP    1, STRESS PERIOD   89


 HEAD WILL BE SAVED ON UNIT   30 AT END OF TIME STEP    1, STRESS PERIOD   89
1
  VOLUMETRIC BUDGET FOR ENTIRE MODEL AT END OF TIME STEP    1, STRESS PERIOD  89
  ------------------------------------------------------------------------------

     CUMULATIVE VOLUMES      L**3       RATES FOR THIS TIME STEP      L**3/T
     ------------------                 ------------------------

           IN:                                      IN:
           ---                                      ---
             STORAGE =           0.0000               STORAGE =           0.0000
       CONSTANT HEAD =           0.0000         CONSTANT HEAD =           0.0000
               WELLS =       3.1143E-04                 WELLS =       2.4000E-04

            TOTAL IN =       3.1143E-04              TOTAL IN =       2.4000E-04

          OUT:                                     OUT:
          ----                                     ----
             STORAGE =           0.0000               STORAGE =           0.0000
       CONSTANT HEAD =       3.1143E-04         CONSTANT HEAD =       2.4000E-04
               WELLS =           0.0000                 WELLS =           0.0000

           TOTAL OUT =       3.1143E-04             TOTAL OUT =       2.4000E-04

            IN - OUT =           0.0000              IN - OUT =      -1.4552E-11

 PERCENT DISCREPANCY =           0.00     PERCENT DISCREPANCY =           0.00






         TIME SUMMARY AT END OF TIME STEP    1 IN STRESS PERIOD   89
                    SECONDS     MINUTES      HOURS       DAYS        YEARS
                    -----------------------------------------------------------
   TIME STEP LENGTH  1259.7      20.995     0.34992     1.45800E-02 3.99179E-05
 STRESS PERIOD TIME  1259.7      20.995     0.34992     1.45800E-02 3.99179E-05
         TOTAL TIME 1.12114E+05  1868.6      31.143      1.2976     3.55269E-03
1
1
                            STRESS PERIOD NO.   90, LENGTH =  0.1458000E-01
                            -----------------------------------------------

                              NUMBER OF TIME STEPS =     1

                               MULTIPLIER FOR DELT =     1.000

                            INITIAL TIME STEP SIZE =  0.1458000E-01

 WELL NO.  LAYER   ROW   COL   STRESS RATE         
 --------------------------------------------------
      1      1      1      1      0.2400E-03

      1 WELL 
 
 SOLVING FOR HEAD 

 OUTPUT CONTROL FOR STRESS PERIOD   90   TIME STEP    1
    SAVE HEAD FOR ALL LAYERS
    SAVE BUDGET
 UBDSV1 SAVING "         STORAGE" ON UNIT  31 AT TIME STEP  1, STRESS PERIOD  90
 UBDSV2 SAVING "   CONSTANT HEAD" ON UNIT  31 AT TIME STEP  1, STRESS PERIOD  90
 UBDSV1 SAVING "FLOW RIGHT FACE " ON UNIT  31 AT TIME STEP  1, STRESS PERIOD  90
 UBDSV4 SAVING "           WELLS" ON UNIT  31 AT TIME STEP  1, STRESS PERIOD  90

 SAVING SATURATED THICKNESS AND FLOW TERMS ON UNIT  333 FOR MT3DMS
 BY THE LINK-MT3DMS PACKAGE V7 AT TIME STEP    1, STRESS PERIOD   90


 HEAD WILL BE SAVED ON UNIT   30 AT END OF TIME STEP    1, STRESS PERIOD   90
1
  VOLUMETRIC BUDGET FOR ENTIRE MODEL AT END OF TIME STEP    1, STRESS PERIOD  90
  ------------------------------------------------------------------------------

     CUMULATIVE VOLUMES      L**3       RATES FOR THIS TIME STEP      L**3/T
     ------------------                 ------------------------

           IN:                                      IN:
           ---                                      ---
             STORAGE =           0.0000               STORAGE =           0.0000
       CONSTANT HEAD =           0.0000         CONSTANT HEAD =           0.0000
               WELLS =       3.1493E-04                 WELLS =       2.4000E-04

            TOTAL IN =       3.1493E-04              TOTAL IN =       2.4000E-04

          OUT:                                     OUT:
          ----                                     ----
             STORAGE =           0.0000               STORAGE =           0.0000
       CONSTANT HEAD =       3.1493E-04         CONSTANT HEAD =       2.4000E-04
               WELLS =           0.0000                 WELLS =           0.0000

           TOTAL OUT =       3.1493E-04             TOTAL OUT =       2.4000E-04

            IN - OUT =           0.0000              IN - OUT =      -1.4552E-11

 PERCENT DISCREPANCY =           0.00     PERCENT DISCREPANCY =           0.00






         TIME SUMMARY AT END OF TIME STEP    1 IN STRESS PERIOD   90
                    SECONDS     MINUTES      HOURS       DAYS        YEARS
                    -----------------------------------------------------------
   TIME STEP LENGTH  1259.7      20.995     0.34992     1.45800E-02 3.99179E-05
 STRESS PERIOD TIME  1259.7      20.995     0.34992     1.45800E-02 3.99179E-05
         TOTAL TIME 1.13374E+05  1889.6      31.493      1.3122     3.59261E-03
1
1
                            STRESS PERIOD NO.   91, LENGTH =  0.1458000E-01
                            -----------------------------------------------

                              NUMBER OF TIME STEPS =     1

                               MULTIPLIER FOR DELT =     1.000

                            INITIAL TIME STEP SIZE =  0.1458000E-01

 WELL NO.  LAYER   ROW   COL   STRESS RATE         
 --------------------------------------------------
      1      1      1      1      0.2400E-03

      1 WELL 
 
 SOLVING FOR HEAD 

 OUTPUT CONTROL FOR STRESS PERIOD   91   TIME STEP    1
    SAVE HEAD FOR ALL LAYERS
    SAVE BUDGET
 UBDSV1 SAVING "         STORAGE" ON UNIT  31 AT TIME STEP  1, STRESS PERIOD  91
 UBDSV2 SAVING "   CONSTANT HEAD" ON UNIT  31 AT TIME STEP  1, STRESS PERIOD  91
 UBDSV1 SAVING "FLOW RIGHT FACE " ON UNIT  31 AT TIME STEP  1, STRESS PERIOD  91
 UBDSV4 SAVING "           WELLS" ON UNIT  31 AT TIME STEP  1, STRESS PERIOD  91

 SAVING SATURATED THICKNESS AND FLOW TERMS ON UNIT  333 FOR MT3DMS
 BY THE LINK-MT3DMS PACKAGE V7 AT TIME STEP    1, STRESS PERIOD   91


 HEAD WILL BE SAVED ON UNIT   30 AT END OF TIME STEP    1, STRESS PERIOD   91
1
  VOLUMETRIC BUDGET FOR ENTIRE MODEL AT END OF TIME STEP    1, STRESS PERIOD  91
  ------------------------------------------------------------------------------

     CUMULATIVE VOLUMES      L**3       RATES FOR THIS TIME STEP      L**3/T
     ------------------                 ------------------------

           IN:                                      IN:
           ---                                      ---
             STORAGE =           0.0000               STORAGE =           0.0000
       CONSTANT HEAD =           0.0000         CONSTANT HEAD =           0.0000
               WELLS =       3.1843E-04                 WELLS =       2.4000E-04

            TOTAL IN =       3.1843E-04              TOTAL IN =       2.4000E-04

          OUT:                                     OUT:
          ----                                     ----
             STORAGE =           0.0000               STORAGE =           0.0000
       CONSTANT HEAD =       3.1843E-04         CONSTANT HEAD =       2.4000E-04
               WELLS =           0.0000                 WELLS =           0.0000

           TOTAL OUT =       3.1843E-04             TOTAL OUT =       2.4000E-04

            IN - OUT =           0.0000              IN - OUT =      -1.4552E-11

 PERCENT DISCREPANCY =           0.00     PERCENT DISCREPANCY =           0.00






         TIME SUMMARY AT END OF TIME STEP    1 IN STRESS PERIOD   91
                    SECONDS     MINUTES      HOURS       DAYS        YEARS
                    -----------------------------------------------------------
   TIME STEP LENGTH  1259.7      20.995     0.34992     1.45800E-02 3.99179E-05
 STRESS PERIOD TIME  1259.7      20.995     0.34992     1.45800E-02 3.99179E-05
         TOTAL TIME 1.14634E+05  1910.6      31.843      1.3268     3.63253E-03
1
1
                            STRESS PERIOD NO.   92, LENGTH =  0.1458000E-01
                            -----------------------------------------------

                              NUMBER OF TIME STEPS =     1

                               MULTIPLIER FOR DELT =     1.000

                            INITIAL TIME STEP SIZE =  0.1458000E-01

 WELL NO.  LAYER   ROW   COL   STRESS RATE         
 --------------------------------------------------
      1      1      1      1      0.2400E-03

      1 WELL 
 
 SOLVING FOR HEAD 

 OUTPUT CONTROL FOR STRESS PERIOD   92   TIME STEP    1
    SAVE HEAD FOR ALL LAYERS
    SAVE BUDGET
 UBDSV1 SAVING "         STORAGE" ON UNIT  31 AT TIME STEP  1, STRESS PERIOD  92
 UBDSV2 SAVING "   CONSTANT HEAD" ON UNIT  31 AT TIME STEP  1, STRESS PERIOD  92
 UBDSV1 SAVING "FLOW RIGHT FACE " ON UNIT  31 AT TIME STEP  1, STRESS PERIOD  92
 UBDSV4 SAVING "           WELLS" ON UNIT  31 AT TIME STEP  1, STRESS PERIOD  92

 SAVING SATURATED THICKNESS AND FLOW TERMS ON UNIT  333 FOR MT3DMS
 BY THE LINK-MT3DMS PACKAGE V7 AT TIME STEP    1, STRESS PERIOD   92


 HEAD WILL BE SAVED ON UNIT   30 AT END OF TIME STEP    1, STRESS PERIOD   92
1
  VOLUMETRIC BUDGET FOR ENTIRE MODEL AT END OF TIME STEP    1, STRESS PERIOD  92
  ------------------------------------------------------------------------------

     CUMULATIVE VOLUMES      L**3       RATES FOR THIS TIME STEP      L**3/T
     ------------------                 ------------------------

           IN:                                      IN:
           ---                                      ---
             STORAGE =           0.0000               STORAGE =           0.0000
       CONSTANT HEAD =           0.0000         CONSTANT HEAD =           0.0000
               WELLS =       3.2193E-04                 WELLS =       2.4000E-04

            TOTAL IN =       3.2193E-04              TOTAL IN =       2.4000E-04

          OUT:                                     OUT:
          ----                                     ----
             STORAGE =           0.0000               STORAGE =           0.0000
       CONSTANT HEAD =       3.2193E-04         CONSTANT HEAD =       2.4000E-04
               WELLS =           0.0000                 WELLS =           0.0000

           TOTAL OUT =       3.2193E-04             TOTAL OUT =       2.4000E-04

            IN - OUT =           0.0000              IN - OUT =      -1.4552E-11

 PERCENT DISCREPANCY =           0.00     PERCENT DISCREPANCY =           0.00






         TIME SUMMARY AT END OF TIME STEP    1 IN STRESS PERIOD   92
                    SECONDS     MINUTES      HOURS       DAYS        YEARS
                    -----------------------------------------------------------
   TIME STEP LENGTH  1259.7      20.995     0.34992     1.45800E-02 3.99179E-05
 STRESS PERIOD TIME  1259.7      20.995     0.34992     1.45800E-02 3.99179E-05
         TOTAL TIME 1.15894E+05  1931.6      32.193      1.3414     3.67245E-03
1
1
                            STRESS PERIOD NO.   93, LENGTH =  0.1458000E-01
                            -----------------------------------------------

                              NUMBER OF TIME STEPS =     1

                               MULTIPLIER FOR DELT =     1.000

                            INITIAL TIME STEP SIZE =  0.1458000E-01

 WELL NO.  LAYER   ROW   COL   STRESS RATE         
 --------------------------------------------------
      1      1      1      1      0.2400E-03

      1 WELL 
 
 SOLVING FOR HEAD 

 OUTPUT CONTROL FOR STRESS PERIOD   93   TIME STEP    1
    SAVE HEAD FOR ALL LAYERS
    SAVE BUDGET
 UBDSV1 SAVING "         STORAGE" ON UNIT  31 AT TIME STEP  1, STRESS PERIOD  93
 UBDSV2 SAVING "   CONSTANT HEAD" ON UNIT  31 AT TIME STEP  1, STRESS PERIOD  93
 UBDSV1 SAVING "FLOW RIGHT FACE " ON UNIT  31 AT TIME STEP  1, STRESS PERIOD  93
 UBDSV4 SAVING "           WELLS" ON UNIT  31 AT TIME STEP  1, STRESS PERIOD  93

 SAVING SATURATED THICKNESS AND FLOW TERMS ON UNIT  333 FOR MT3DMS
 BY THE LINK-MT3DMS PACKAGE V7 AT TIME STEP    1, STRESS PERIOD   93


 HEAD WILL BE SAVED ON UNIT   30 AT END OF TIME STEP    1, STRESS PERIOD   93
1
  VOLUMETRIC BUDGET FOR ENTIRE MODEL AT END OF TIME STEP    1, STRESS PERIOD  93
  ------------------------------------------------------------------------------

     CUMULATIVE VOLUMES      L**3       RATES FOR THIS TIME STEP      L**3/T
     ------------------                 ------------------------

           IN:                                      IN:
           ---                                      ---
             STORAGE =           0.0000               STORAGE =           0.0000
       CONSTANT HEAD =           0.0000         CONSTANT HEAD =           0.0000
               WELLS =       3.2543E-04                 WELLS =       2.4000E-04

            TOTAL IN =       3.2543E-04              TOTAL IN =       2.4000E-04

          OUT:                                     OUT:
          ----                                     ----
             STORAGE =           0.0000               STORAGE =           0.0000
       CONSTANT HEAD =       3.2543E-04         CONSTANT HEAD =       2.4000E-04
               WELLS =           0.0000                 WELLS =           0.0000

           TOTAL OUT =       3.2543E-04             TOTAL OUT =       2.4000E-04

            IN - OUT =           0.0000              IN - OUT =      -1.4552E-11

 PERCENT DISCREPANCY =           0.00     PERCENT DISCREPANCY =           0.00






         TIME SUMMARY AT END OF TIME STEP    1 IN STRESS PERIOD   93
                    SECONDS     MINUTES      HOURS       DAYS        YEARS
                    -----------------------------------------------------------
   TIME STEP LENGTH  1259.7      20.995     0.34992     1.45800E-02 3.99179E-05
 STRESS PERIOD TIME  1259.7      20.995     0.34992     1.45800E-02 3.99179E-05
         TOTAL TIME 1.17153E+05  1952.6      32.543      1.3559     3.71236E-03
1
1
                            STRESS PERIOD NO.   94, LENGTH =  0.1458000E-01
                            -----------------------------------------------

                              NUMBER OF TIME STEPS =     1

                               MULTIPLIER FOR DELT =     1.000

                            INITIAL TIME STEP SIZE =  0.1458000E-01

 WELL NO.  LAYER   ROW   COL   STRESS RATE         
 --------------------------------------------------
      1      1      1      1      0.2400E-03

      1 WELL 
 
 SOLVING FOR HEAD 

 OUTPUT CONTROL FOR STRESS PERIOD   94   TIME STEP    1
    SAVE HEAD FOR ALL LAYERS
    SAVE BUDGET
 UBDSV1 SAVING "         STORAGE" ON UNIT  31 AT TIME STEP  1, STRESS PERIOD  94
 UBDSV2 SAVING "   CONSTANT HEAD" ON UNIT  31 AT TIME STEP  1, STRESS PERIOD  94
 UBDSV1 SAVING "FLOW RIGHT FACE " ON UNIT  31 AT TIME STEP  1, STRESS PERIOD  94
 UBDSV4 SAVING "           WELLS" ON UNIT  31 AT TIME STEP  1, STRESS PERIOD  94

 SAVING SATURATED THICKNESS AND FLOW TERMS ON UNIT  333 FOR MT3DMS
 BY THE LINK-MT3DMS PACKAGE V7 AT TIME STEP    1, STRESS PERIOD   94


 HEAD WILL BE SAVED ON UNIT   30 AT END OF TIME STEP    1, STRESS PERIOD   94
1
  VOLUMETRIC BUDGET FOR ENTIRE MODEL AT END OF TIME STEP    1, STRESS PERIOD  94
  ------------------------------------------------------------------------------

     CUMULATIVE VOLUMES      L**3       RATES FOR THIS TIME STEP      L**3/T
     ------------------                 ------------------------

           IN:                                      IN:
           ---                                      ---
             STORAGE =           0.0000               STORAGE =           0.0000
       CONSTANT HEAD =           0.0000         CONSTANT HEAD =           0.0000
               WELLS =       3.2892E-04                 WELLS =       2.4000E-04

            TOTAL IN =       3.2892E-04              TOTAL IN =       2.4000E-04

          OUT:                                     OUT:
          ----                                     ----
             STORAGE =           0.0000               STORAGE =           0.0000
       CONSTANT HEAD =       3.2892E-04         CONSTANT HEAD =       2.4000E-04
               WELLS =           0.0000                 WELLS =           0.0000

           TOTAL OUT =       3.2892E-04             TOTAL OUT =       2.4000E-04

            IN - OUT =           0.0000              IN - OUT =      -1.4552E-11

 PERCENT DISCREPANCY =           0.00     PERCENT DISCREPANCY =           0.00






         TIME SUMMARY AT END OF TIME STEP    1 IN STRESS PERIOD   94
                    SECONDS     MINUTES      HOURS       DAYS        YEARS
                    -----------------------------------------------------------
   TIME STEP LENGTH  1259.7      20.995     0.34992     1.45800E-02 3.99179E-05
 STRESS PERIOD TIME  1259.7      20.995     0.34992     1.45800E-02 3.99179E-05
         TOTAL TIME 1.18413E+05  1973.6      32.893      1.3705     3.75228E-03
1
1
                            STRESS PERIOD NO.   95, LENGTH =  0.1458000E-01
                            -----------------------------------------------

                              NUMBER OF TIME STEPS =     1

                               MULTIPLIER FOR DELT =     1.000

                            INITIAL TIME STEP SIZE =  0.1458000E-01

 WELL NO.  LAYER   ROW   COL   STRESS RATE         
 --------------------------------------------------
      1      1      1      1      0.2400E-03

      1 WELL 
 
 SOLVING FOR HEAD 

 OUTPUT CONTROL FOR STRESS PERIOD   95   TIME STEP    1
    SAVE HEAD FOR ALL LAYERS
    SAVE BUDGET
 UBDSV1 SAVING "         STORAGE" ON UNIT  31 AT TIME STEP  1, STRESS PERIOD  95
 UBDSV2 SAVING "   CONSTANT HEAD" ON UNIT  31 AT TIME STEP  1, STRESS PERIOD  95
 UBDSV1 SAVING "FLOW RIGHT FACE " ON UNIT  31 AT TIME STEP  1, STRESS PERIOD  95
 UBDSV4 SAVING "           WELLS" ON UNIT  31 AT TIME STEP  1, STRESS PERIOD  95

 SAVING SATURATED THICKNESS AND FLOW TERMS ON UNIT  333 FOR MT3DMS
 BY THE LINK-MT3DMS PACKAGE V7 AT TIME STEP    1, STRESS PERIOD   95


 HEAD WILL BE SAVED ON UNIT   30 AT END OF TIME STEP    1, STRESS PERIOD   95
1
  VOLUMETRIC BUDGET FOR ENTIRE MODEL AT END OF TIME STEP    1, STRESS PERIOD  95
  ------------------------------------------------------------------------------

     CUMULATIVE VOLUMES      L**3       RATES FOR THIS TIME STEP      L**3/T
     ------------------                 ------------------------

           IN:                                      IN:
           ---                                      ---
             STORAGE =           0.0000               STORAGE =           0.0000
       CONSTANT HEAD =           0.0000         CONSTANT HEAD =           0.0000
               WELLS =       3.3242E-04                 WELLS =       2.4000E-04

            TOTAL IN =       3.3242E-04              TOTAL IN =       2.4000E-04

          OUT:                                     OUT:
          ----                                     ----
             STORAGE =           0.0000               STORAGE =           0.0000
       CONSTANT HEAD =       3.3242E-04         CONSTANT HEAD =       2.4000E-04
               WELLS =           0.0000                 WELLS =           0.0000

           TOTAL OUT =       3.3242E-04             TOTAL OUT =       2.4000E-04

            IN - OUT =           0.0000              IN - OUT =      -1.4552E-11

 PERCENT DISCREPANCY =           0.00     PERCENT DISCREPANCY =           0.00






         TIME SUMMARY AT END OF TIME STEP    1 IN STRESS PERIOD   95
                    SECONDS     MINUTES      HOURS       DAYS        YEARS
                    -----------------------------------------------------------
   TIME STEP LENGTH  1259.7      20.995     0.34992     1.45800E-02 3.99179E-05
 STRESS PERIOD TIME  1259.7      20.995     0.34992     1.45800E-02 3.99179E-05
         TOTAL TIME 1.19673E+05  1994.5      33.242      1.3851     3.79220E-03
1
1
                            STRESS PERIOD NO.   96, LENGTH =  0.1458000E-01
                            -----------------------------------------------

                              NUMBER OF TIME STEPS =     1

                               MULTIPLIER FOR DELT =     1.000

                            INITIAL TIME STEP SIZE =  0.1458000E-01

 WELL NO.  LAYER   ROW   COL   STRESS RATE         
 --------------------------------------------------
      1      1      1      1      0.2400E-03

      1 WELL 
 
 SOLVING FOR HEAD 

 OUTPUT CONTROL FOR STRESS PERIOD   96   TIME STEP    1
    SAVE HEAD FOR ALL LAYERS
    SAVE BUDGET
 UBDSV1 SAVING "         STORAGE" ON UNIT  31 AT TIME STEP  1, STRESS PERIOD  96
 UBDSV2 SAVING "   CONSTANT HEAD" ON UNIT  31 AT TIME STEP  1, STRESS PERIOD  96
 UBDSV1 SAVING "FLOW RIGHT FACE " ON UNIT  31 AT TIME STEP  1, STRESS PERIOD  96
 UBDSV4 SAVING "           WELLS" ON UNIT  31 AT TIME STEP  1, STRESS PERIOD  96

 SAVING SATURATED THICKNESS AND FLOW TERMS ON UNIT  333 FOR MT3DMS
 BY THE LINK-MT3DMS PACKAGE V7 AT TIME STEP    1, STRESS PERIOD   96


 HEAD WILL BE SAVED ON UNIT   30 AT END OF TIME STEP    1, STRESS PERIOD   96
1
  VOLUMETRIC BUDGET FOR ENTIRE MODEL AT END OF TIME STEP    1, STRESS PERIOD  96
  ------------------------------------------------------------------------------

     CUMULATIVE VOLUMES      L**3       RATES FOR THIS TIME STEP      L**3/T
     ------------------                 ------------------------

           IN:                                      IN:
           ---                                      ---
             STORAGE =           0.0000               STORAGE =           0.0000
       CONSTANT HEAD =           0.0000         CONSTANT HEAD =           0.0000
               WELLS =       3.3592E-04                 WELLS =       2.4000E-04

            TOTAL IN =       3.3592E-04              TOTAL IN =       2.4000E-04

          OUT:                                     OUT:
          ----                                     ----
             STORAGE =           0.0000               STORAGE =           0.0000
       CONSTANT HEAD =       3.3592E-04         CONSTANT HEAD =       2.4000E-04
               WELLS =           0.0000                 WELLS =           0.0000

           TOTAL OUT =       3.3592E-04             TOTAL OUT =       2.4000E-04

            IN - OUT =           0.0000              IN - OUT =      -1.4552E-11

 PERCENT DISCREPANCY =           0.00     PERCENT DISCREPANCY =           0.00






         TIME SUMMARY AT END OF TIME STEP    1 IN STRESS PERIOD   96
                    SECONDS     MINUTES      HOURS       DAYS        YEARS
                    -----------------------------------------------------------
   TIME STEP LENGTH  1259.7      20.995     0.34992     1.45800E-02 3.99179E-05
 STRESS PERIOD TIME  1259.7      20.995     0.34992     1.45800E-02 3.99179E-05
         TOTAL TIME 1.20932E+05  2015.5      33.592      1.3997     3.83212E-03
1
1
                            STRESS PERIOD NO.   97, LENGTH =  0.1458000E-01
                            -----------------------------------------------

                              NUMBER OF TIME STEPS =     1

                               MULTIPLIER FOR DELT =     1.000

                            INITIAL TIME STEP SIZE =  0.1458000E-01

 WELL NO.  LAYER   ROW   COL   STRESS RATE         
 --------------------------------------------------
      1      1      1      1      0.2400E-03

      1 WELL 
 
 SOLVING FOR HEAD 

 OUTPUT CONTROL FOR STRESS PERIOD   97   TIME STEP    1
    SAVE HEAD FOR ALL LAYERS
    SAVE BUDGET
 UBDSV1 SAVING "         STORAGE" ON UNIT  31 AT TIME STEP  1, STRESS PERIOD  97
 UBDSV2 SAVING "   CONSTANT HEAD" ON UNIT  31 AT TIME STEP  1, STRESS PERIOD  97
 UBDSV1 SAVING "FLOW RIGHT FACE " ON UNIT  31 AT TIME STEP  1, STRESS PERIOD  97
 UBDSV4 SAVING "           WELLS" ON UNIT  31 AT TIME STEP  1, STRESS PERIOD  97

 SAVING SATURATED THICKNESS AND FLOW TERMS ON UNIT  333 FOR MT3DMS
 BY THE LINK-MT3DMS PACKAGE V7 AT TIME STEP    1, STRESS PERIOD   97


 HEAD WILL BE SAVED ON UNIT   30 AT END OF TIME STEP    1, STRESS PERIOD   97
1
  VOLUMETRIC BUDGET FOR ENTIRE MODEL AT END OF TIME STEP    1, STRESS PERIOD  97
  ------------------------------------------------------------------------------

     CUMULATIVE VOLUMES      L**3       RATES FOR THIS TIME STEP      L**3/T
     ------------------                 ------------------------

           IN:                                      IN:
           ---                                      ---
             STORAGE =           0.0000               STORAGE =           0.0000
       CONSTANT HEAD =           0.0000         CONSTANT HEAD =           0.0000
               WELLS =       3.3942E-04                 WELLS =       2.4000E-04

            TOTAL IN =       3.3942E-04              TOTAL IN =       2.4000E-04

          OUT:                                     OUT:
          ----                                     ----
             STORAGE =           0.0000               STORAGE =           0.0000
       CONSTANT HEAD =       3.3942E-04         CONSTANT HEAD =       2.4000E-04
               WELLS =           0.0000                 WELLS =           0.0000

           TOTAL OUT =       3.3942E-04             TOTAL OUT =       2.4000E-04

            IN - OUT =           0.0000              IN - OUT =      -1.4552E-11

 PERCENT DISCREPANCY =           0.00     PERCENT DISCREPANCY =           0.00






         TIME SUMMARY AT END OF TIME STEP    1 IN STRESS PERIOD   97
                    SECONDS     MINUTES      HOURS       DAYS        YEARS
                    -----------------------------------------------------------
   TIME STEP LENGTH  1259.7      20.995     0.34992     1.45800E-02 3.99179E-05
 STRESS PERIOD TIME  1259.7      20.995     0.34992     1.45800E-02 3.99179E-05
         TOTAL TIME 1.22192E+05  2036.5      33.942      1.4143     3.87204E-03
1
1
                            STRESS PERIOD NO.   98, LENGTH =  0.1458000E-01
                            -----------------------------------------------

                              NUMBER OF TIME STEPS =     1

                               MULTIPLIER FOR DELT =     1.000

                            INITIAL TIME STEP SIZE =  0.1458000E-01

 WELL NO.  LAYER   ROW   COL   STRESS RATE         
 --------------------------------------------------
      1      1      1      1      0.2400E-03

      1 WELL 
 
 SOLVING FOR HEAD 

 OUTPUT CONTROL FOR STRESS PERIOD   98   TIME STEP    1
    SAVE HEAD FOR ALL LAYERS
    SAVE BUDGET
 UBDSV1 SAVING "         STORAGE" ON UNIT  31 AT TIME STEP  1, STRESS PERIOD  98
 UBDSV2 SAVING "   CONSTANT HEAD" ON UNIT  31 AT TIME STEP  1, STRESS PERIOD  98
 UBDSV1 SAVING "FLOW RIGHT FACE " ON UNIT  31 AT TIME STEP  1, STRESS PERIOD  98
 UBDSV4 SAVING "           WELLS" ON UNIT  31 AT TIME STEP  1, STRESS PERIOD  98

 SAVING SATURATED THICKNESS AND FLOW TERMS ON UNIT  333 FOR MT3DMS
 BY THE LINK-MT3DMS PACKAGE V7 AT TIME STEP    1, STRESS PERIOD   98


 HEAD WILL BE SAVED ON UNIT   30 AT END OF TIME STEP    1, STRESS PERIOD   98
1
  VOLUMETRIC BUDGET FOR ENTIRE MODEL AT END OF TIME STEP    1, STRESS PERIOD  98
  ------------------------------------------------------------------------------

     CUMULATIVE VOLUMES      L**3       RATES FOR THIS TIME STEP      L**3/T
     ------------------                 ------------------------

           IN:                                      IN:
           ---                                      ---
             STORAGE =           0.0000               STORAGE =           0.0000
       CONSTANT HEAD =           0.0000         CONSTANT HEAD =           0.0000
               WELLS =       3.4292E-04                 WELLS =       2.4000E-04

            TOTAL IN =       3.4292E-04              TOTAL IN =       2.4000E-04

          OUT:                                     OUT:
          ----                                     ----
             STORAGE =           0.0000               STORAGE =           0.0000
       CONSTANT HEAD =       3.4292E-04         CONSTANT HEAD =       2.4000E-04
               WELLS =           0.0000                 WELLS =           0.0000

           TOTAL OUT =       3.4292E-04             TOTAL OUT =       2.4000E-04

            IN - OUT =           0.0000              IN - OUT =      -1.4552E-11

 PERCENT DISCREPANCY =           0.00     PERCENT DISCREPANCY =           0.00






         TIME SUMMARY AT END OF TIME STEP    1 IN STRESS PERIOD   98
                    SECONDS     MINUTES      HOURS       DAYS        YEARS
                    -----------------------------------------------------------
   TIME STEP LENGTH  1259.7      20.995     0.34992     1.45800E-02 3.99179E-05
 STRESS PERIOD TIME  1259.7      20.995     0.34992     1.45800E-02 3.99179E-05
         TOTAL TIME 1.23452E+05  2057.5      34.292      1.4288     3.91195E-03
1
1
                            STRESS PERIOD NO.   99, LENGTH =  0.1458000E-01
                            -----------------------------------------------

                              NUMBER OF TIME STEPS =     1

                               MULTIPLIER FOR DELT =     1.000

                            INITIAL TIME STEP SIZE =  0.1458000E-01

 WELL NO.  LAYER   ROW   COL   STRESS RATE         
 --------------------------------------------------
      1      1      1      1      0.2400E-03

      1 WELL 
 
 SOLVING FOR HEAD 

 OUTPUT CONTROL FOR STRESS PERIOD   99   TIME STEP    1
    SAVE HEAD FOR ALL LAYERS
    SAVE BUDGET
 UBDSV1 SAVING "         STORAGE" ON UNIT  31 AT TIME STEP  1, STRESS PERIOD  99
 UBDSV2 SAVING "   CONSTANT HEAD" ON UNIT  31 AT TIME STEP  1, STRESS PERIOD  99
 UBDSV1 SAVING "FLOW RIGHT FACE " ON UNIT  31 AT TIME STEP  1, STRESS PERIOD  99
 UBDSV4 SAVING "           WELLS" ON UNIT  31 AT TIME STEP  1, STRESS PERIOD  99

 SAVING SATURATED THICKNESS AND FLOW TERMS ON UNIT  333 FOR MT3DMS
 BY THE LINK-MT3DMS PACKAGE V7 AT TIME STEP    1, STRESS PERIOD   99


 HEAD WILL BE SAVED ON UNIT   30 AT END OF TIME STEP    1, STRESS PERIOD   99
1
  VOLUMETRIC BUDGET FOR ENTIRE MODEL AT END OF TIME STEP    1, STRESS PERIOD  99
  ------------------------------------------------------------------------------

     CUMULATIVE VOLUMES      L**3       RATES FOR THIS TIME STEP      L**3/T
     ------------------                 ------------------------

           IN:                                      IN:
           ---                                      ---
             STORAGE =           0.0000               STORAGE =           0.0000
       CONSTANT HEAD =           0.0000         CONSTANT HEAD =           0.0000
               WELLS =       3.4642E-04                 WELLS =       2.4000E-04

            TOTAL IN =       3.4642E-04              TOTAL IN =       2.4000E-04

          OUT:                                     OUT:
          ----                                     ----
             STORAGE =           0.0000               STORAGE =           0.0000
       CONSTANT HEAD =       3.4642E-04         CONSTANT HEAD =       2.4000E-04
               WELLS =           0.0000                 WELLS =           0.0000

           TOTAL OUT =       3.4642E-04             TOTAL OUT =       2.4000E-04

            IN - OUT =           0.0000              IN - OUT =      -1.4552E-11

 PERCENT DISCREPANCY =           0.00     PERCENT DISCREPANCY =           0.00






         TIME SUMMARY AT END OF TIME STEP    1 IN STRESS PERIOD   99
                    SECONDS     MINUTES      HOURS       DAYS        YEARS
                    -----------------------------------------------------------
   TIME STEP LENGTH  1259.7      20.995     0.34992     1.45800E-02 3.99179E-05
 STRESS PERIOD TIME  1259.7      20.995     0.34992     1.45800E-02 3.99179E-05
         TOTAL TIME 1.24712E+05  2078.5      34.642      1.4434     3.95187E-03
1
1
                            STRESS PERIOD NO.  100, LENGTH =  0.1458000E-01
                            -----------------------------------------------

                              NUMBER OF TIME STEPS =     1

                               MULTIPLIER FOR DELT =     1.000

                            INITIAL TIME STEP SIZE =  0.1458000E-01

 WELL NO.  LAYER   ROW   COL   STRESS RATE         
 --------------------------------------------------
      1      1      1      1      0.2400E-03

      1 WELL 
 
 SOLVING FOR HEAD 

 OUTPUT CONTROL FOR STRESS PERIOD  100   TIME STEP    1
    SAVE HEAD FOR ALL LAYERS
    SAVE BUDGET
 UBDSV1 SAVING "         STORAGE" ON UNIT  31 AT TIME STEP  1, STRESS PERIOD 100
 UBDSV2 SAVING "   CONSTANT HEAD" ON UNIT  31 AT TIME STEP  1, STRESS PERIOD 100
 UBDSV1 SAVING "FLOW RIGHT FACE " ON UNIT  31 AT TIME STEP  1, STRESS PERIOD 100
 UBDSV4 SAVING "           WELLS" ON UNIT  31 AT TIME STEP  1, STRESS PERIOD 100

 SAVING SATURATED THICKNESS AND FLOW TERMS ON UNIT  333 FOR MT3DMS
 BY THE LINK-MT3DMS PACKAGE V7 AT TIME STEP    1, STRESS PERIOD  100


 HEAD WILL BE SAVED ON UNIT   30 AT END OF TIME STEP    1, STRESS PERIOD  100
1
  VOLUMETRIC BUDGET FOR ENTIRE MODEL AT END OF TIME STEP    1, STRESS PERIOD 100
  ------------------------------------------------------------------------------

     CUMULATIVE VOLUMES      L**3       RATES FOR THIS TIME STEP      L**3/T
     ------------------                 ------------------------

           IN:                                      IN:
           ---                                      ---
             STORAGE =           0.0000               STORAGE =           0.0000
       CONSTANT HEAD =           0.0000         CONSTANT HEAD =           0.0000
               WELLS =       3.4992E-04                 WELLS =       2.4000E-04

            TOTAL IN =       3.4992E-04              TOTAL IN =       2.4000E-04

          OUT:                                     OUT:
          ----                                     ----
             STORAGE =           0.0000               STORAGE =           0.0000
       CONSTANT HEAD =       3.4992E-04         CONSTANT HEAD =       2.4000E-04
               WELLS =           0.0000                 WELLS =           0.0000

           TOTAL OUT =       3.4992E-04             TOTAL OUT =       2.4000E-04

            IN - OUT =           0.0000              IN - OUT =      -1.4552E-11

 PERCENT DISCREPANCY =           0.00     PERCENT DISCREPANCY =           0.00






         TIME SUMMARY AT END OF TIME STEP    1 IN STRESS PERIOD  100
                    SECONDS     MINUTES      HOURS       DAYS        YEARS
                    -----------------------------------------------------------
   TIME STEP LENGTH  1259.7      20.995     0.34992     1.45800E-02 3.99179E-05
 STRESS PERIOD TIME  1259.7      20.995     0.34992     1.45800E-02 3.99179E-05
         TOTAL TIME 1.25971E+05  2099.5      34.992      1.4580     3.99179E-03
1
1
                            STRESS PERIOD NO.  101, LENGTH =  0.1458000E-01
                            -----------------------------------------------

                              NUMBER OF TIME STEPS =     1

                               MULTIPLIER FOR DELT =     1.000

                            INITIAL TIME STEP SIZE =  0.1458000E-01

 WELL NO.  LAYER   ROW   COL   STRESS RATE         
 --------------------------------------------------
      1      1      1      1      0.2400E-03

      1 WELL 
 
 SOLVING FOR HEAD 

 OUTPUT CONTROL FOR STRESS PERIOD  101   TIME STEP    1
    SAVE HEAD FOR ALL LAYERS
    SAVE BUDGET
 UBDSV1 SAVING "         STORAGE" ON UNIT  31 AT TIME STEP  1, STRESS PERIOD 101
 UBDSV2 SAVING "   CONSTANT HEAD" ON UNIT  31 AT TIME STEP  1, STRESS PERIOD 101
 UBDSV1 SAVING "FLOW RIGHT FACE " ON UNIT  31 AT TIME STEP  1, STRESS PERIOD 101
 UBDSV4 SAVING "           WELLS" ON UNIT  31 AT TIME STEP  1, STRESS PERIOD 101

 SAVING SATURATED THICKNESS AND FLOW TERMS ON UNIT  333 FOR MT3DMS
 BY THE LINK-MT3DMS PACKAGE V7 AT TIME STEP    1, STRESS PERIOD  101


 HEAD WILL BE SAVED ON UNIT   30 AT END OF TIME STEP    1, STRESS PERIOD  101
1
  VOLUMETRIC BUDGET FOR ENTIRE MODEL AT END OF TIME STEP    1, STRESS PERIOD 101
  ------------------------------------------------------------------------------

     CUMULATIVE VOLUMES      L**3       RATES FOR THIS TIME STEP      L**3/T
     ------------------                 ------------------------

           IN:                                      IN:
           ---                                      ---
             STORAGE =           0.0000               STORAGE =           0.0000
       CONSTANT HEAD =           0.0000         CONSTANT HEAD =           0.0000
               WELLS =       3.5342E-04                 WELLS =       2.4000E-04

            TOTAL IN =       3.5342E-04              TOTAL IN =       2.4000E-04

          OUT:                                     OUT:
          ----                                     ----
             STORAGE =           0.0000               STORAGE =           0.0000
       CONSTANT HEAD =       3.5342E-04         CONSTANT HEAD =       2.4000E-04
               WELLS =           0.0000                 WELLS =           0.0000

           TOTAL OUT =       3.5342E-04             TOTAL OUT =       2.4000E-04

            IN - OUT =           0.0000              IN - OUT =      -1.4552E-11

 PERCENT DISCREPANCY =           0.00     PERCENT DISCREPANCY =           0.00






         TIME SUMMARY AT END OF TIME STEP    1 IN STRESS PERIOD  101
                    SECONDS     MINUTES      HOURS       DAYS        YEARS
                    -----------------------------------------------------------
   TIME STEP LENGTH  1259.7      20.995     0.34992     1.45800E-02 3.99179E-05
 STRESS PERIOD TIME  1259.7      20.995     0.34992     1.45800E-02 3.99179E-05
         TOTAL TIME 1.27231E+05  2120.5      35.342      1.4726     4.03171E-03
1
1
                            STRESS PERIOD NO.  102, LENGTH =  0.1458000E-01
                            -----------------------------------------------

                              NUMBER OF TIME STEPS =     1

                               MULTIPLIER FOR DELT =     1.000

                            INITIAL TIME STEP SIZE =  0.1458000E-01

 WELL NO.  LAYER   ROW   COL   STRESS RATE         
 --------------------------------------------------
      1      1      1      1      0.2400E-03

      1 WELL 
 
 SOLVING FOR HEAD 

 OUTPUT CONTROL FOR STRESS PERIOD  102   TIME STEP    1
    SAVE HEAD FOR ALL LAYERS
    SAVE BUDGET
 UBDSV1 SAVING "         STORAGE" ON UNIT  31 AT TIME STEP  1, STRESS PERIOD 102
 UBDSV2 SAVING "   CONSTANT HEAD" ON UNIT  31 AT TIME STEP  1, STRESS PERIOD 102
 UBDSV1 SAVING "FLOW RIGHT FACE " ON UNIT  31 AT TIME STEP  1, STRESS PERIOD 102
 UBDSV4 SAVING "           WELLS" ON UNIT  31 AT TIME STEP  1, STRESS PERIOD 102

 SAVING SATURATED THICKNESS AND FLOW TERMS ON UNIT  333 FOR MT3DMS
 BY THE LINK-MT3DMS PACKAGE V7 AT TIME STEP    1, STRESS PERIOD  102


 HEAD WILL BE SAVED ON UNIT   30 AT END OF TIME STEP    1, STRESS PERIOD  102
1
  VOLUMETRIC BUDGET FOR ENTIRE MODEL AT END OF TIME STEP    1, STRESS PERIOD 102
  ------------------------------------------------------------------------------

     CUMULATIVE VOLUMES      L**3       RATES FOR THIS TIME STEP      L**3/T
     ------------------                 ------------------------

           IN:                                      IN:
           ---                                      ---
             STORAGE =           0.0000               STORAGE =           0.0000
       CONSTANT HEAD =           0.0000         CONSTANT HEAD =           0.0000
               WELLS =       3.5692E-04                 WELLS =       2.4000E-04

            TOTAL IN =       3.5692E-04              TOTAL IN =       2.4000E-04

          OUT:                                     OUT:
          ----                                     ----
             STORAGE =           0.0000               STORAGE =           0.0000
       CONSTANT HEAD =       3.5692E-04         CONSTANT HEAD =       2.4000E-04
               WELLS =           0.0000                 WELLS =           0.0000

           TOTAL OUT =       3.5692E-04             TOTAL OUT =       2.4000E-04

            IN - OUT =           0.0000              IN - OUT =      -1.4552E-11

 PERCENT DISCREPANCY =           0.00     PERCENT DISCREPANCY =           0.00






         TIME SUMMARY AT END OF TIME STEP    1 IN STRESS PERIOD  102
                    SECONDS     MINUTES      HOURS       DAYS        YEARS
                    -----------------------------------------------------------
   TIME STEP LENGTH  1259.7      20.995     0.34992     1.45800E-02 3.99179E-05
 STRESS PERIOD TIME  1259.7      20.995     0.34992     1.45800E-02 3.99179E-05
         TOTAL TIME 1.28491E+05  2141.5      35.692      1.4872     4.07162E-03
1
1
                            STRESS PERIOD NO.  103, LENGTH =  0.1458000E-01
                            -----------------------------------------------

                              NUMBER OF TIME STEPS =     1

                               MULTIPLIER FOR DELT =     1.000

                            INITIAL TIME STEP SIZE =  0.1458000E-01

 WELL NO.  LAYER   ROW   COL   STRESS RATE         
 --------------------------------------------------
      1      1      1      1      0.2400E-03

      1 WELL 
 
 SOLVING FOR HEAD 

 OUTPUT CONTROL FOR STRESS PERIOD  103   TIME STEP    1
    SAVE HEAD FOR ALL LAYERS
    SAVE BUDGET
 UBDSV1 SAVING "         STORAGE" ON UNIT  31 AT TIME STEP  1, STRESS PERIOD 103
 UBDSV2 SAVING "   CONSTANT HEAD" ON UNIT  31 AT TIME STEP  1, STRESS PERIOD 103
 UBDSV1 SAVING "FLOW RIGHT FACE " ON UNIT  31 AT TIME STEP  1, STRESS PERIOD 103
 UBDSV4 SAVING "           WELLS" ON UNIT  31 AT TIME STEP  1, STRESS PERIOD 103

 SAVING SATURATED THICKNESS AND FLOW TERMS ON UNIT  333 FOR MT3DMS
 BY THE LINK-MT3DMS PACKAGE V7 AT TIME STEP    1, STRESS PERIOD  103


 HEAD WILL BE SAVED ON UNIT   30 AT END OF TIME STEP    1, STRESS PERIOD  103
1
  VOLUMETRIC BUDGET FOR ENTIRE MODEL AT END OF TIME STEP    1, STRESS PERIOD 103
  ------------------------------------------------------------------------------

     CUMULATIVE VOLUMES      L**3       RATES FOR THIS TIME STEP      L**3/T
     ------------------                 ------------------------

           IN:                                      IN:
           ---                                      ---
             STORAGE =           0.0000               STORAGE =           0.0000
       CONSTANT HEAD =           0.0000         CONSTANT HEAD =           0.0000
               WELLS =       3.6042E-04                 WELLS =       2.4000E-04

            TOTAL IN =       3.6042E-04              TOTAL IN =       2.4000E-04

          OUT:                                     OUT:
          ----                                     ----
             STORAGE =           0.0000               STORAGE =           0.0000
       CONSTANT HEAD =       3.6042E-04         CONSTANT HEAD =       2.4000E-04
               WELLS =           0.0000                 WELLS =           0.0000

           TOTAL OUT =       3.6042E-04             TOTAL OUT =       2.4000E-04

            IN - OUT =           0.0000              IN - OUT =      -1.4552E-11

 PERCENT DISCREPANCY =           0.00     PERCENT DISCREPANCY =           0.00






         TIME SUMMARY AT END OF TIME STEP    1 IN STRESS PERIOD  103
                    SECONDS     MINUTES      HOURS       DAYS        YEARS
                    -----------------------------------------------------------
   TIME STEP LENGTH  1259.7      20.995     0.34992     1.45800E-02 3.99179E-05
 STRESS PERIOD TIME  1259.7      20.995     0.34992     1.45800E-02 3.99179E-05
         TOTAL TIME 1.29750E+05  2162.5      36.042      1.5017     4.11154E-03
1
1
                            STRESS PERIOD NO.  104, LENGTH =  0.1458000E-01
                            -----------------------------------------------

                              NUMBER OF TIME STEPS =     1

                               MULTIPLIER FOR DELT =     1.000

                            INITIAL TIME STEP SIZE =  0.1458000E-01

 WELL NO.  LAYER   ROW   COL   STRESS RATE         
 --------------------------------------------------
      1      1      1      1      0.2400E-03

      1 WELL 
 
 SOLVING FOR HEAD 

 OUTPUT CONTROL FOR STRESS PERIOD  104   TIME STEP    1
    SAVE HEAD FOR ALL LAYERS
    SAVE BUDGET
 UBDSV1 SAVING "         STORAGE" ON UNIT  31 AT TIME STEP  1, STRESS PERIOD 104
 UBDSV2 SAVING "   CONSTANT HEAD" ON UNIT  31 AT TIME STEP  1, STRESS PERIOD 104
 UBDSV1 SAVING "FLOW RIGHT FACE " ON UNIT  31 AT TIME STEP  1, STRESS PERIOD 104
 UBDSV4 SAVING "           WELLS" ON UNIT  31 AT TIME STEP  1, STRESS PERIOD 104

 SAVING SATURATED THICKNESS AND FLOW TERMS ON UNIT  333 FOR MT3DMS
 BY THE LINK-MT3DMS PACKAGE V7 AT TIME STEP    1, STRESS PERIOD  104


 HEAD WILL BE SAVED ON UNIT   30 AT END OF TIME STEP    1, STRESS PERIOD  104
1
  VOLUMETRIC BUDGET FOR ENTIRE MODEL AT END OF TIME STEP    1, STRESS PERIOD 104
  ------------------------------------------------------------------------------

     CUMULATIVE VOLUMES      L**3       RATES FOR THIS TIME STEP      L**3/T
     ------------------                 ------------------------

           IN:                                      IN:
           ---                                      ---
             STORAGE =           0.0000               STORAGE =           0.0000
       CONSTANT HEAD =           0.0000         CONSTANT HEAD =           0.0000
               WELLS =       3.6392E-04                 WELLS =       2.4000E-04

            TOTAL IN =       3.6392E-04              TOTAL IN =       2.4000E-04

          OUT:                                     OUT:
          ----                                     ----
             STORAGE =           0.0000               STORAGE =           0.0000
       CONSTANT HEAD =       3.6392E-04         CONSTANT HEAD =       2.4000E-04
               WELLS =           0.0000                 WELLS =           0.0000

           TOTAL OUT =       3.6392E-04             TOTAL OUT =       2.4000E-04

            IN - OUT =           0.0000              IN - OUT =      -1.4552E-11

 PERCENT DISCREPANCY =           0.00     PERCENT DISCREPANCY =           0.00






         TIME SUMMARY AT END OF TIME STEP    1 IN STRESS PERIOD  104
                    SECONDS     MINUTES      HOURS       DAYS        YEARS
                    -----------------------------------------------------------
   TIME STEP LENGTH  1259.7      20.995     0.34992     1.45800E-02 3.99179E-05
 STRESS PERIOD TIME  1259.7      20.995     0.34992     1.45800E-02 3.99179E-05
         TOTAL TIME 1.31010E+05  2183.5      36.392      1.5163     4.15146E-03
1
1
                            STRESS PERIOD NO.  105, LENGTH =  0.1458000E-01
                            -----------------------------------------------

                              NUMBER OF TIME STEPS =     1

                               MULTIPLIER FOR DELT =     1.000

                            INITIAL TIME STEP SIZE =  0.1458000E-01

 WELL NO.  LAYER   ROW   COL   STRESS RATE         
 --------------------------------------------------
      1      1      1      1      0.2400E-03

      1 WELL 
 
 SOLVING FOR HEAD 

 OUTPUT CONTROL FOR STRESS PERIOD  105   TIME STEP    1
    SAVE HEAD FOR ALL LAYERS
    SAVE BUDGET
 UBDSV1 SAVING "         STORAGE" ON UNIT  31 AT TIME STEP  1, STRESS PERIOD 105
 UBDSV2 SAVING "   CONSTANT HEAD" ON UNIT  31 AT TIME STEP  1, STRESS PERIOD 105
 UBDSV1 SAVING "FLOW RIGHT FACE " ON UNIT  31 AT TIME STEP  1, STRESS PERIOD 105
 UBDSV4 SAVING "           WELLS" ON UNIT  31 AT TIME STEP  1, STRESS PERIOD 105

 SAVING SATURATED THICKNESS AND FLOW TERMS ON UNIT  333 FOR MT3DMS
 BY THE LINK-MT3DMS PACKAGE V7 AT TIME STEP    1, STRESS PERIOD  105


 HEAD WILL BE SAVED ON UNIT   30 AT END OF TIME STEP    1, STRESS PERIOD  105
1
  VOLUMETRIC BUDGET FOR ENTIRE MODEL AT END OF TIME STEP    1, STRESS PERIOD 105
  ------------------------------------------------------------------------------

     CUMULATIVE VOLUMES      L**3       RATES FOR THIS TIME STEP      L**3/T
     ------------------                 ------------------------

           IN:                                      IN:
           ---                                      ---
             STORAGE =           0.0000               STORAGE =           0.0000
       CONSTANT HEAD =           0.0000         CONSTANT HEAD =           0.0000
               WELLS =       3.6742E-04                 WELLS =       2.4000E-04

            TOTAL IN =       3.6742E-04              TOTAL IN =       2.4000E-04

          OUT:                                     OUT:
          ----                                     ----
             STORAGE =           0.0000               STORAGE =           0.0000
       CONSTANT HEAD =       3.6742E-04         CONSTANT HEAD =       2.4000E-04
               WELLS =           0.0000                 WELLS =           0.0000

           TOTAL OUT =       3.6742E-04             TOTAL OUT =       2.4000E-04

            IN - OUT =           0.0000              IN - OUT =      -1.4552E-11

 PERCENT DISCREPANCY =           0.00     PERCENT DISCREPANCY =           0.00






         TIME SUMMARY AT END OF TIME STEP    1 IN STRESS PERIOD  105
                    SECONDS     MINUTES      HOURS       DAYS        YEARS
                    -----------------------------------------------------------
   TIME STEP LENGTH  1259.7      20.995     0.34992     1.45800E-02 3.99179E-05
 STRESS PERIOD TIME  1259.7      20.995     0.34992     1.45800E-02 3.99179E-05
         TOTAL TIME 1.32270E+05  2204.5      36.742      1.5309     4.19138E-03
1
1
                            STRESS PERIOD NO.  106, LENGTH =  0.1458000E-01
                            -----------------------------------------------

                              NUMBER OF TIME STEPS =     1

                               MULTIPLIER FOR DELT =     1.000

                            INITIAL TIME STEP SIZE =  0.1458000E-01

 WELL NO.  LAYER   ROW   COL   STRESS RATE         
 --------------------------------------------------
      1      1      1      1      0.2400E-03

      1 WELL 
 
 SOLVING FOR HEAD 

 OUTPUT CONTROL FOR STRESS PERIOD  106   TIME STEP    1
    SAVE HEAD FOR ALL LAYERS
    SAVE BUDGET
 UBDSV1 SAVING "         STORAGE" ON UNIT  31 AT TIME STEP  1, STRESS PERIOD 106
 UBDSV2 SAVING "   CONSTANT HEAD" ON UNIT  31 AT TIME STEP  1, STRESS PERIOD 106
 UBDSV1 SAVING "FLOW RIGHT FACE " ON UNIT  31 AT TIME STEP  1, STRESS PERIOD 106
 UBDSV4 SAVING "           WELLS" ON UNIT  31 AT TIME STEP  1, STRESS PERIOD 106

 SAVING SATURATED THICKNESS AND FLOW TERMS ON UNIT  333 FOR MT3DMS
 BY THE LINK-MT3DMS PACKAGE V7 AT TIME STEP    1, STRESS PERIOD  106


 HEAD WILL BE SAVED ON UNIT   30 AT END OF TIME STEP    1, STRESS PERIOD  106
1
  VOLUMETRIC BUDGET FOR ENTIRE MODEL AT END OF TIME STEP    1, STRESS PERIOD 106
  ------------------------------------------------------------------------------

     CUMULATIVE VOLUMES      L**3       RATES FOR THIS TIME STEP      L**3/T
     ------------------                 ------------------------

           IN:                                      IN:
           ---                                      ---
             STORAGE =           0.0000               STORAGE =           0.0000
       CONSTANT HEAD =           0.0000         CONSTANT HEAD =           0.0000
               WELLS =       3.7092E-04                 WELLS =       2.4000E-04

            TOTAL IN =       3.7092E-04              TOTAL IN =       2.4000E-04

          OUT:                                     OUT:
          ----                                     ----
             STORAGE =           0.0000               STORAGE =           0.0000
       CONSTANT HEAD =       3.7092E-04         CONSTANT HEAD =       2.4000E-04
               WELLS =           0.0000                 WELLS =           0.0000

           TOTAL OUT =       3.7092E-04             TOTAL OUT =       2.4000E-04

            IN - OUT =           0.0000              IN - OUT =      -1.4552E-11

 PERCENT DISCREPANCY =           0.00     PERCENT DISCREPANCY =           0.00






         TIME SUMMARY AT END OF TIME STEP    1 IN STRESS PERIOD  106
                    SECONDS     MINUTES      HOURS       DAYS        YEARS
                    -----------------------------------------------------------
   TIME STEP LENGTH  1259.7      20.995     0.34992     1.45800E-02 3.99179E-05
 STRESS PERIOD TIME  1259.7      20.995     0.34992     1.45800E-02 3.99179E-05
         TOTAL TIME 1.33530E+05  2225.5      37.092      1.5455     4.23130E-03
1
1
                            STRESS PERIOD NO.  107, LENGTH =  0.1458000E-01
                            -----------------------------------------------

                              NUMBER OF TIME STEPS =     1

                               MULTIPLIER FOR DELT =     1.000

                            INITIAL TIME STEP SIZE =  0.1458000E-01

 WELL NO.  LAYER   ROW   COL   STRESS RATE         
 --------------------------------------------------
      1      1      1      1      0.2400E-03

      1 WELL 
 
 SOLVING FOR HEAD 

 OUTPUT CONTROL FOR STRESS PERIOD  107   TIME STEP    1
    SAVE HEAD FOR ALL LAYERS
    SAVE BUDGET
 UBDSV1 SAVING "         STORAGE" ON UNIT  31 AT TIME STEP  1, STRESS PERIOD 107
 UBDSV2 SAVING "   CONSTANT HEAD" ON UNIT  31 AT TIME STEP  1, STRESS PERIOD 107
 UBDSV1 SAVING "FLOW RIGHT FACE " ON UNIT  31 AT TIME STEP  1, STRESS PERIOD 107
 UBDSV4 SAVING "           WELLS" ON UNIT  31 AT TIME STEP  1, STRESS PERIOD 107

 SAVING SATURATED THICKNESS AND FLOW TERMS ON UNIT  333 FOR MT3DMS
 BY THE LINK-MT3DMS PACKAGE V7 AT TIME STEP    1, STRESS PERIOD  107


 HEAD WILL BE SAVED ON UNIT   30 AT END OF TIME STEP    1, STRESS PERIOD  107
1
  VOLUMETRIC BUDGET FOR ENTIRE MODEL AT END OF TIME STEP    1, STRESS PERIOD 107
  ------------------------------------------------------------------------------

     CUMULATIVE VOLUMES      L**3       RATES FOR THIS TIME STEP      L**3/T
     ------------------                 ------------------------

           IN:                                      IN:
           ---                                      ---
             STORAGE =           0.0000               STORAGE =           0.0000
       CONSTANT HEAD =           0.0000         CONSTANT HEAD =           0.0000
               WELLS =       3.7441E-04                 WELLS =       2.4000E-04

            TOTAL IN =       3.7441E-04              TOTAL IN =       2.4000E-04

          OUT:                                     OUT:
          ----                                     ----
             STORAGE =           0.0000               STORAGE =           0.0000
       CONSTANT HEAD =       3.7441E-04         CONSTANT HEAD =       2.4000E-04
               WELLS =           0.0000                 WELLS =           0.0000

           TOTAL OUT =       3.7441E-04             TOTAL OUT =       2.4000E-04

            IN - OUT =           0.0000              IN - OUT =      -1.4552E-11

 PERCENT DISCREPANCY =           0.00     PERCENT DISCREPANCY =           0.00






         TIME SUMMARY AT END OF TIME STEP    1 IN STRESS PERIOD  107
                    SECONDS     MINUTES      HOURS       DAYS        YEARS
                    -----------------------------------------------------------
   TIME STEP LENGTH  1259.7      20.995     0.34992     1.45800E-02 3.99179E-05
 STRESS PERIOD TIME  1259.7      20.995     0.34992     1.45800E-02 3.99179E-05
         TOTAL TIME 1.34789E+05  2246.5      37.441      1.5601     4.27121E-03
1
1
                            STRESS PERIOD NO.  108, LENGTH =  0.1458000E-01
                            -----------------------------------------------

                              NUMBER OF TIME STEPS =     1

                               MULTIPLIER FOR DELT =     1.000

                            INITIAL TIME STEP SIZE =  0.1458000E-01

 WELL NO.  LAYER   ROW   COL   STRESS RATE         
 --------------------------------------------------
      1      1      1      1      0.2400E-03

      1 WELL 
 
 SOLVING FOR HEAD 

 OUTPUT CONTROL FOR STRESS PERIOD  108   TIME STEP    1
    SAVE HEAD FOR ALL LAYERS
    SAVE BUDGET
 UBDSV1 SAVING "         STORAGE" ON UNIT  31 AT TIME STEP  1, STRESS PERIOD 108
 UBDSV2 SAVING "   CONSTANT HEAD" ON UNIT  31 AT TIME STEP  1, STRESS PERIOD 108
 UBDSV1 SAVING "FLOW RIGHT FACE " ON UNIT  31 AT TIME STEP  1, STRESS PERIOD 108
 UBDSV4 SAVING "           WELLS" ON UNIT  31 AT TIME STEP  1, STRESS PERIOD 108

 SAVING SATURATED THICKNESS AND FLOW TERMS ON UNIT  333 FOR MT3DMS
 BY THE LINK-MT3DMS PACKAGE V7 AT TIME STEP    1, STRESS PERIOD  108


 HEAD WILL BE SAVED ON UNIT   30 AT END OF TIME STEP    1, STRESS PERIOD  108
1
  VOLUMETRIC BUDGET FOR ENTIRE MODEL AT END OF TIME STEP    1, STRESS PERIOD 108
  ------------------------------------------------------------------------------

     CUMULATIVE VOLUMES      L**3       RATES FOR THIS TIME STEP      L**3/T
     ------------------                 ------------------------

           IN:                                      IN:
           ---                                      ---
             STORAGE =           0.0000               STORAGE =           0.0000
       CONSTANT HEAD =           0.0000         CONSTANT HEAD =           0.0000
               WELLS =       3.7791E-04                 WELLS =       2.4000E-04

            TOTAL IN =       3.7791E-04              TOTAL IN =       2.4000E-04

          OUT:                                     OUT:
          ----                                     ----
             STORAGE =           0.0000               STORAGE =           0.0000
       CONSTANT HEAD =       3.7791E-04         CONSTANT HEAD =       2.4000E-04
               WELLS =           0.0000                 WELLS =           0.0000

           TOTAL OUT =       3.7791E-04             TOTAL OUT =       2.4000E-04

            IN - OUT =           0.0000              IN - OUT =      -1.4552E-11

 PERCENT DISCREPANCY =           0.00     PERCENT DISCREPANCY =           0.00






         TIME SUMMARY AT END OF TIME STEP    1 IN STRESS PERIOD  108
                    SECONDS     MINUTES      HOURS       DAYS        YEARS
                    -----------------------------------------------------------
   TIME STEP LENGTH  1259.7      20.995     0.34992     1.45800E-02 3.99179E-05
 STRESS PERIOD TIME  1259.7      20.995     0.34992     1.45800E-02 3.99179E-05
         TOTAL TIME 1.36049E+05  2267.5      37.791      1.5746     4.31113E-03
1
1
                            STRESS PERIOD NO.  109, LENGTH =  0.1458000E-01
                            -----------------------------------------------

                              NUMBER OF TIME STEPS =     1

                               MULTIPLIER FOR DELT =     1.000

                            INITIAL TIME STEP SIZE =  0.1458000E-01

 WELL NO.  LAYER   ROW   COL   STRESS RATE         
 --------------------------------------------------
      1      1      1      1      0.2400E-03

      1 WELL 
 
 SOLVING FOR HEAD 

 OUTPUT CONTROL FOR STRESS PERIOD  109   TIME STEP    1
    SAVE HEAD FOR ALL LAYERS
    SAVE BUDGET
 UBDSV1 SAVING "         STORAGE" ON UNIT  31 AT TIME STEP  1, STRESS PERIOD 109
 UBDSV2 SAVING "   CONSTANT HEAD" ON UNIT  31 AT TIME STEP  1, STRESS PERIOD 109
 UBDSV1 SAVING "FLOW RIGHT FACE " ON UNIT  31 AT TIME STEP  1, STRESS PERIOD 109
 UBDSV4 SAVING "           WELLS" ON UNIT  31 AT TIME STEP  1, STRESS PERIOD 109

 SAVING SATURATED THICKNESS AND FLOW TERMS ON UNIT  333 FOR MT3DMS
 BY THE LINK-MT3DMS PACKAGE V7 AT TIME STEP    1, STRESS PERIOD  109


 HEAD WILL BE SAVED ON UNIT   30 AT END OF TIME STEP    1, STRESS PERIOD  109
1
  VOLUMETRIC BUDGET FOR ENTIRE MODEL AT END OF TIME STEP    1, STRESS PERIOD 109
  ------------------------------------------------------------------------------

     CUMULATIVE VOLUMES      L**3       RATES FOR THIS TIME STEP      L**3/T
     ------------------                 ------------------------

           IN:                                      IN:
           ---                                      ---
             STORAGE =           0.0000               STORAGE =           0.0000
       CONSTANT HEAD =           0.0000         CONSTANT HEAD =           0.0000
               WELLS =       3.8141E-04                 WELLS =       2.4000E-04

            TOTAL IN =       3.8141E-04              TOTAL IN =       2.4000E-04

          OUT:                                     OUT:
          ----                                     ----
             STORAGE =           0.0000               STORAGE =           0.0000
       CONSTANT HEAD =       3.8141E-04         CONSTANT HEAD =       2.4000E-04
               WELLS =           0.0000                 WELLS =           0.0000

           TOTAL OUT =       3.8141E-04             TOTAL OUT =       2.4000E-04

            IN - OUT =           0.0000              IN - OUT =      -1.4552E-11

 PERCENT DISCREPANCY =           0.00     PERCENT DISCREPANCY =           0.00






         TIME SUMMARY AT END OF TIME STEP    1 IN STRESS PERIOD  109
                    SECONDS     MINUTES      HOURS       DAYS        YEARS
                    -----------------------------------------------------------
   TIME STEP LENGTH  1259.7      20.995     0.34992     1.45800E-02 3.99179E-05
 STRESS PERIOD TIME  1259.7      20.995     0.34992     1.45800E-02 3.99179E-05
         TOTAL TIME 1.37309E+05  2288.5      38.141      1.5892     4.35105E-03
1
1
                            STRESS PERIOD NO.  110, LENGTH =  0.1458000E-01
                            -----------------------------------------------

                              NUMBER OF TIME STEPS =     1

                               MULTIPLIER FOR DELT =     1.000

                            INITIAL TIME STEP SIZE =  0.1458000E-01

 WELL NO.  LAYER   ROW   COL   STRESS RATE         
 --------------------------------------------------
      1      1      1      1      0.2400E-03

      1 WELL 
 
 SOLVING FOR HEAD 

 OUTPUT CONTROL FOR STRESS PERIOD  110   TIME STEP    1
    SAVE HEAD FOR ALL LAYERS
    SAVE BUDGET
 UBDSV1 SAVING "         STORAGE" ON UNIT  31 AT TIME STEP  1, STRESS PERIOD 110
 UBDSV2 SAVING "   CONSTANT HEAD" ON UNIT  31 AT TIME STEP  1, STRESS PERIOD 110
 UBDSV1 SAVING "FLOW RIGHT FACE " ON UNIT  31 AT TIME STEP  1, STRESS PERIOD 110
 UBDSV4 SAVING "           WELLS" ON UNIT  31 AT TIME STEP  1, STRESS PERIOD 110

 SAVING SATURATED THICKNESS AND FLOW TERMS ON UNIT  333 FOR MT3DMS
 BY THE LINK-MT3DMS PACKAGE V7 AT TIME STEP    1, STRESS PERIOD  110


 HEAD WILL BE SAVED ON UNIT   30 AT END OF TIME STEP    1, STRESS PERIOD  110
1
  VOLUMETRIC BUDGET FOR ENTIRE MODEL AT END OF TIME STEP    1, STRESS PERIOD 110
  ------------------------------------------------------------------------------

     CUMULATIVE VOLUMES      L**3       RATES FOR THIS TIME STEP      L**3/T
     ------------------                 ------------------------

           IN:                                      IN:
           ---                                      ---
             STORAGE =           0.0000               STORAGE =           0.0000
       CONSTANT HEAD =           0.0000         CONSTANT HEAD =           0.0000
               WELLS =       3.8491E-04                 WELLS =       2.4000E-04

            TOTAL IN =       3.8491E-04              TOTAL IN =       2.4000E-04

          OUT:                                     OUT:
          ----                                     ----
             STORAGE =           0.0000               STORAGE =           0.0000
       CONSTANT HEAD =       3.8491E-04         CONSTANT HEAD =       2.4000E-04
               WELLS =           0.0000                 WELLS =           0.0000

           TOTAL OUT =       3.8491E-04             TOTAL OUT =       2.4000E-04

            IN - OUT =           0.0000              IN - OUT =      -1.4552E-11

 PERCENT DISCREPANCY =           0.00     PERCENT DISCREPANCY =           0.00






         TIME SUMMARY AT END OF TIME STEP    1 IN STRESS PERIOD  110
                    SECONDS     MINUTES      HOURS       DAYS        YEARS
                    -----------------------------------------------------------
   TIME STEP LENGTH  1259.7      20.995     0.34992     1.45800E-02 3.99179E-05
 STRESS PERIOD TIME  1259.7      20.995     0.34992     1.45800E-02 3.99179E-05
         TOTAL TIME 1.38568E+05  2309.5      38.491      1.6038     4.39097E-03
1
1
                            STRESS PERIOD NO.  111, LENGTH =  0.1458000E-01
                            -----------------------------------------------

                              NUMBER OF TIME STEPS =     1

                               MULTIPLIER FOR DELT =     1.000

                            INITIAL TIME STEP SIZE =  0.1458000E-01

 WELL NO.  LAYER   ROW   COL   STRESS RATE         
 --------------------------------------------------
      1      1      1      1      0.2400E-03

      1 WELL 
 
 SOLVING FOR HEAD 

 OUTPUT CONTROL FOR STRESS PERIOD  111   TIME STEP    1
    SAVE HEAD FOR ALL LAYERS
    SAVE BUDGET
 UBDSV1 SAVING "         STORAGE" ON UNIT  31 AT TIME STEP  1, STRESS PERIOD 111
 UBDSV2 SAVING "   CONSTANT HEAD" ON UNIT  31 AT TIME STEP  1, STRESS PERIOD 111
 UBDSV1 SAVING "FLOW RIGHT FACE " ON UNIT  31 AT TIME STEP  1, STRESS PERIOD 111
 UBDSV4 SAVING "           WELLS" ON UNIT  31 AT TIME STEP  1, STRESS PERIOD 111

 SAVING SATURATED THICKNESS AND FLOW TERMS ON UNIT  333 FOR MT3DMS
 BY THE LINK-MT3DMS PACKAGE V7 AT TIME STEP    1, STRESS PERIOD  111


 HEAD WILL BE SAVED ON UNIT   30 AT END OF TIME STEP    1, STRESS PERIOD  111
1
  VOLUMETRIC BUDGET FOR ENTIRE MODEL AT END OF TIME STEP    1, STRESS PERIOD 111
  ------------------------------------------------------------------------------

     CUMULATIVE VOLUMES      L**3       RATES FOR THIS TIME STEP      L**3/T
     ------------------                 ------------------------

           IN:                                      IN:
           ---                                      ---
             STORAGE =           0.0000               STORAGE =           0.0000
       CONSTANT HEAD =           0.0000         CONSTANT HEAD =           0.0000
               WELLS =       3.8841E-04                 WELLS =       2.4000E-04

            TOTAL IN =       3.8841E-04              TOTAL IN =       2.4000E-04

          OUT:                                     OUT:
          ----                                     ----
             STORAGE =           0.0000               STORAGE =           0.0000
       CONSTANT HEAD =       3.8841E-04         CONSTANT HEAD =       2.4000E-04
               WELLS =           0.0000                 WELLS =           0.0000

           TOTAL OUT =       3.8841E-04             TOTAL OUT =       2.4000E-04

            IN - OUT =           0.0000              IN - OUT =      -1.4552E-11

 PERCENT DISCREPANCY =           0.00     PERCENT DISCREPANCY =           0.00






         TIME SUMMARY AT END OF TIME STEP    1 IN STRESS PERIOD  111
                    SECONDS     MINUTES      HOURS       DAYS        YEARS
                    -----------------------------------------------------------
   TIME STEP LENGTH  1259.7      20.995     0.34992     1.45800E-02 3.99179E-05
 STRESS PERIOD TIME  1259.7      20.995     0.34992     1.45800E-02 3.99179E-05
         TOTAL TIME 1.39828E+05  2330.5      38.841      1.6184     4.43089E-03
1
1
                            STRESS PERIOD NO.  112, LENGTH =  0.1458000E-01
                            -----------------------------------------------

                              NUMBER OF TIME STEPS =     1

                               MULTIPLIER FOR DELT =     1.000

                            INITIAL TIME STEP SIZE =  0.1458000E-01

 WELL NO.  LAYER   ROW   COL   STRESS RATE         
 --------------------------------------------------
      1      1      1      1      0.2400E-03

      1 WELL 
 
 SOLVING FOR HEAD 

 OUTPUT CONTROL FOR STRESS PERIOD  112   TIME STEP    1
    SAVE HEAD FOR ALL LAYERS
    SAVE BUDGET
 UBDSV1 SAVING "         STORAGE" ON UNIT  31 AT TIME STEP  1, STRESS PERIOD 112
 UBDSV2 SAVING "   CONSTANT HEAD" ON UNIT  31 AT TIME STEP  1, STRESS PERIOD 112
 UBDSV1 SAVING "FLOW RIGHT FACE " ON UNIT  31 AT TIME STEP  1, STRESS PERIOD 112
 UBDSV4 SAVING "           WELLS" ON UNIT  31 AT TIME STEP  1, STRESS PERIOD 112

 SAVING SATURATED THICKNESS AND FLOW TERMS ON UNIT  333 FOR MT3DMS
 BY THE LINK-MT3DMS PACKAGE V7 AT TIME STEP    1, STRESS PERIOD  112


 HEAD WILL BE SAVED ON UNIT   30 AT END OF TIME STEP    1, STRESS PERIOD  112
1
  VOLUMETRIC BUDGET FOR ENTIRE MODEL AT END OF TIME STEP    1, STRESS PERIOD 112
  ------------------------------------------------------------------------------

     CUMULATIVE VOLUMES      L**3       RATES FOR THIS TIME STEP      L**3/T
     ------------------                 ------------------------

           IN:                                      IN:
           ---                                      ---
             STORAGE =           0.0000               STORAGE =           0.0000
       CONSTANT HEAD =           0.0000         CONSTANT HEAD =           0.0000
               WELLS =       3.9191E-04                 WELLS =       2.4000E-04

            TOTAL IN =       3.9191E-04              TOTAL IN =       2.4000E-04

          OUT:                                     OUT:
          ----                                     ----
             STORAGE =           0.0000               STORAGE =           0.0000
       CONSTANT HEAD =       3.9191E-04         CONSTANT HEAD =       2.4000E-04
               WELLS =           0.0000                 WELLS =           0.0000

           TOTAL OUT =       3.9191E-04             TOTAL OUT =       2.4000E-04

            IN - OUT =           0.0000              IN - OUT =      -1.4552E-11

 PERCENT DISCREPANCY =           0.00     PERCENT DISCREPANCY =           0.00






         TIME SUMMARY AT END OF TIME STEP    1 IN STRESS PERIOD  112
                    SECONDS     MINUTES      HOURS       DAYS        YEARS
                    -----------------------------------------------------------
   TIME STEP LENGTH  1259.7      20.995     0.34992     1.45800E-02 3.99179E-05
 STRESS PERIOD TIME  1259.7      20.995     0.34992     1.45800E-02 3.99179E-05
         TOTAL TIME 1.41088E+05  2351.5      39.191      1.6330     4.47080E-03
1
1
                            STRESS PERIOD NO.  113, LENGTH =  0.1458000E-01
                            -----------------------------------------------

                              NUMBER OF TIME STEPS =     1

                               MULTIPLIER FOR DELT =     1.000

                            INITIAL TIME STEP SIZE =  0.1458000E-01

 WELL NO.  LAYER   ROW   COL   STRESS RATE         
 --------------------------------------------------
      1      1      1      1      0.2400E-03

      1 WELL 
 
 SOLVING FOR HEAD 

 OUTPUT CONTROL FOR STRESS PERIOD  113   TIME STEP    1
    SAVE HEAD FOR ALL LAYERS
    SAVE BUDGET
 UBDSV1 SAVING "         STORAGE" ON UNIT  31 AT TIME STEP  1, STRESS PERIOD 113
 UBDSV2 SAVING "   CONSTANT HEAD" ON UNIT  31 AT TIME STEP  1, STRESS PERIOD 113
 UBDSV1 SAVING "FLOW RIGHT FACE " ON UNIT  31 AT TIME STEP  1, STRESS PERIOD 113
 UBDSV4 SAVING "           WELLS" ON UNIT  31 AT TIME STEP  1, STRESS PERIOD 113

 SAVING SATURATED THICKNESS AND FLOW TERMS ON UNIT  333 FOR MT3DMS
 BY THE LINK-MT3DMS PACKAGE V7 AT TIME STEP    1, STRESS PERIOD  113


 HEAD WILL BE SAVED ON UNIT   30 AT END OF TIME STEP    1, STRESS PERIOD  113
1
  VOLUMETRIC BUDGET FOR ENTIRE MODEL AT END OF TIME STEP    1, STRESS PERIOD 113
  ------------------------------------------------------------------------------

     CUMULATIVE VOLUMES      L**3       RATES FOR THIS TIME STEP      L**3/T
     ------------------                 ------------------------

           IN:                                      IN:
           ---                                      ---
             STORAGE =           0.0000               STORAGE =           0.0000
       CONSTANT HEAD =           0.0000         CONSTANT HEAD =           0.0000
               WELLS =       3.9541E-04                 WELLS =       2.4000E-04

            TOTAL IN =       3.9541E-04              TOTAL IN =       2.4000E-04

          OUT:                                     OUT:
          ----                                     ----
             STORAGE =           0.0000               STORAGE =           0.0000
       CONSTANT HEAD =       3.9541E-04         CONSTANT HEAD =       2.4000E-04
               WELLS =           0.0000                 WELLS =           0.0000

           TOTAL OUT =       3.9541E-04             TOTAL OUT =       2.4000E-04

            IN - OUT =           0.0000              IN - OUT =      -1.4552E-11

 PERCENT DISCREPANCY =           0.00     PERCENT DISCREPANCY =           0.00






         TIME SUMMARY AT END OF TIME STEP    1 IN STRESS PERIOD  113
                    SECONDS     MINUTES      HOURS       DAYS        YEARS
                    -----------------------------------------------------------
   TIME STEP LENGTH  1259.7      20.995     0.34992     1.45800E-02 3.99179E-05
 STRESS PERIOD TIME  1259.7      20.995     0.34992     1.45800E-02 3.99179E-05
         TOTAL TIME 1.42348E+05  2372.5      39.541      1.6475     4.51072E-03
1
1
                            STRESS PERIOD NO.  114, LENGTH =  0.1458000E-01
                            -----------------------------------------------

                              NUMBER OF TIME STEPS =     1

                               MULTIPLIER FOR DELT =     1.000

                            INITIAL TIME STEP SIZE =  0.1458000E-01

 WELL NO.  LAYER   ROW   COL   STRESS RATE         
 --------------------------------------------------
      1      1      1      1      0.2400E-03

      1 WELL 
 
 SOLVING FOR HEAD 

 OUTPUT CONTROL FOR STRESS PERIOD  114   TIME STEP    1
    SAVE HEAD FOR ALL LAYERS
    SAVE BUDGET
 UBDSV1 SAVING "         STORAGE" ON UNIT  31 AT TIME STEP  1, STRESS PERIOD 114
 UBDSV2 SAVING "   CONSTANT HEAD" ON UNIT  31 AT TIME STEP  1, STRESS PERIOD 114
 UBDSV1 SAVING "FLOW RIGHT FACE " ON UNIT  31 AT TIME STEP  1, STRESS PERIOD 114
 UBDSV4 SAVING "           WELLS" ON UNIT  31 AT TIME STEP  1, STRESS PERIOD 114

 SAVING SATURATED THICKNESS AND FLOW TERMS ON UNIT  333 FOR MT3DMS
 BY THE LINK-MT3DMS PACKAGE V7 AT TIME STEP    1, STRESS PERIOD  114


 HEAD WILL BE SAVED ON UNIT   30 AT END OF TIME STEP    1, STRESS PERIOD  114
1
  VOLUMETRIC BUDGET FOR ENTIRE MODEL AT END OF TIME STEP    1, STRESS PERIOD 114
  ------------------------------------------------------------------------------

     CUMULATIVE VOLUMES      L**3       RATES FOR THIS TIME STEP      L**3/T
     ------------------                 ------------------------

           IN:                                      IN:
           ---                                      ---
             STORAGE =           0.0000               STORAGE =           0.0000
       CONSTANT HEAD =           0.0000         CONSTANT HEAD =           0.0000
               WELLS =       3.9891E-04                 WELLS =       2.4000E-04

            TOTAL IN =       3.9891E-04              TOTAL IN =       2.4000E-04

          OUT:                                     OUT:
          ----                                     ----
             STORAGE =           0.0000               STORAGE =           0.0000
       CONSTANT HEAD =       3.9891E-04         CONSTANT HEAD =       2.4000E-04
               WELLS =           0.0000                 WELLS =           0.0000

           TOTAL OUT =       3.9891E-04             TOTAL OUT =       2.4000E-04

            IN - OUT =           0.0000              IN - OUT =      -1.4552E-11

 PERCENT DISCREPANCY =           0.00     PERCENT DISCREPANCY =           0.00






         TIME SUMMARY AT END OF TIME STEP    1 IN STRESS PERIOD  114
                    SECONDS     MINUTES      HOURS       DAYS        YEARS
                    -----------------------------------------------------------
   TIME STEP LENGTH  1259.7      20.995     0.34992     1.45800E-02 3.99179E-05
 STRESS PERIOD TIME  1259.7      20.995     0.34992     1.45800E-02 3.99179E-05
         TOTAL TIME 1.43607E+05  2393.5      39.891      1.6621     4.55064E-03
1
1
                            STRESS PERIOD NO.  115, LENGTH =  0.1458000E-01
                            -----------------------------------------------

                              NUMBER OF TIME STEPS =     1

                               MULTIPLIER FOR DELT =     1.000

                            INITIAL TIME STEP SIZE =  0.1458000E-01

 WELL NO.  LAYER   ROW   COL   STRESS RATE         
 --------------------------------------------------
      1      1      1      1      0.2400E-03

      1 WELL 
 
 SOLVING FOR HEAD 

 OUTPUT CONTROL FOR STRESS PERIOD  115   TIME STEP    1
    SAVE HEAD FOR ALL LAYERS
    SAVE BUDGET
 UBDSV1 SAVING "         STORAGE" ON UNIT  31 AT TIME STEP  1, STRESS PERIOD 115
 UBDSV2 SAVING "   CONSTANT HEAD" ON UNIT  31 AT TIME STEP  1, STRESS PERIOD 115
 UBDSV1 SAVING "FLOW RIGHT FACE " ON UNIT  31 AT TIME STEP  1, STRESS PERIOD 115
 UBDSV4 SAVING "           WELLS" ON UNIT  31 AT TIME STEP  1, STRESS PERIOD 115

 SAVING SATURATED THICKNESS AND FLOW TERMS ON UNIT  333 FOR MT3DMS
 BY THE LINK-MT3DMS PACKAGE V7 AT TIME STEP    1, STRESS PERIOD  115


 HEAD WILL BE SAVED ON UNIT   30 AT END OF TIME STEP    1, STRESS PERIOD  115
1
  VOLUMETRIC BUDGET FOR ENTIRE MODEL AT END OF TIME STEP    1, STRESS PERIOD 115
  ------------------------------------------------------------------------------

     CUMULATIVE VOLUMES      L**3       RATES FOR THIS TIME STEP      L**3/T
     ------------------                 ------------------------

           IN:                                      IN:
           ---                                      ---
             STORAGE =           0.0000               STORAGE =           0.0000
       CONSTANT HEAD =           0.0000         CONSTANT HEAD =           0.0000
               WELLS =       4.0241E-04                 WELLS =       2.4000E-04

            TOTAL IN =       4.0241E-04              TOTAL IN =       2.4000E-04

          OUT:                                     OUT:
          ----                                     ----
             STORAGE =           0.0000               STORAGE =           0.0000
       CONSTANT HEAD =       4.0241E-04         CONSTANT HEAD =       2.4000E-04
               WELLS =           0.0000                 WELLS =           0.0000

           TOTAL OUT =       4.0241E-04             TOTAL OUT =       2.4000E-04

            IN - OUT =           0.0000              IN - OUT =      -1.4552E-11

 PERCENT DISCREPANCY =           0.00     PERCENT DISCREPANCY =           0.00






         TIME SUMMARY AT END OF TIME STEP    1 IN STRESS PERIOD  115
                    SECONDS     MINUTES      HOURS       DAYS        YEARS
                    -----------------------------------------------------------
   TIME STEP LENGTH  1259.7      20.995     0.34992     1.45800E-02 3.99179E-05
 STRESS PERIOD TIME  1259.7      20.995     0.34992     1.45800E-02 3.99179E-05
         TOTAL TIME 1.44867E+05  2414.4      40.241      1.6767     4.59056E-03
1
1
                            STRESS PERIOD NO.  116, LENGTH =  0.1458000E-01
                            -----------------------------------------------

                              NUMBER OF TIME STEPS =     1

                               MULTIPLIER FOR DELT =     1.000

                            INITIAL TIME STEP SIZE =  0.1458000E-01

 WELL NO.  LAYER   ROW   COL   STRESS RATE         
 --------------------------------------------------
      1      1      1      1      0.2400E-03

      1 WELL 
 
 SOLVING FOR HEAD 

 OUTPUT CONTROL FOR STRESS PERIOD  116   TIME STEP    1
    SAVE HEAD FOR ALL LAYERS
    SAVE BUDGET
 UBDSV1 SAVING "         STORAGE" ON UNIT  31 AT TIME STEP  1, STRESS PERIOD 116
 UBDSV2 SAVING "   CONSTANT HEAD" ON UNIT  31 AT TIME STEP  1, STRESS PERIOD 116
 UBDSV1 SAVING "FLOW RIGHT FACE " ON UNIT  31 AT TIME STEP  1, STRESS PERIOD 116
 UBDSV4 SAVING "           WELLS" ON UNIT  31 AT TIME STEP  1, STRESS PERIOD 116

 SAVING SATURATED THICKNESS AND FLOW TERMS ON UNIT  333 FOR MT3DMS
 BY THE LINK-MT3DMS PACKAGE V7 AT TIME STEP    1, STRESS PERIOD  116


 HEAD WILL BE SAVED ON UNIT   30 AT END OF TIME STEP    1, STRESS PERIOD  116
1
  VOLUMETRIC BUDGET FOR ENTIRE MODEL AT END OF TIME STEP    1, STRESS PERIOD 116
  ------------------------------------------------------------------------------

     CUMULATIVE VOLUMES      L**3       RATES FOR THIS TIME STEP      L**3/T
     ------------------                 ------------------------

           IN:                                      IN:
           ---                                      ---
             STORAGE =           0.0000               STORAGE =           0.0000
       CONSTANT HEAD =           0.0000         CONSTANT HEAD =           0.0000
               WELLS =       4.0591E-04                 WELLS =       2.4000E-04

            TOTAL IN =       4.0591E-04              TOTAL IN =       2.4000E-04

          OUT:                                     OUT:
          ----                                     ----
             STORAGE =           0.0000               STORAGE =           0.0000
       CONSTANT HEAD =       4.0591E-04         CONSTANT HEAD =       2.4000E-04
               WELLS =           0.0000                 WELLS =           0.0000

           TOTAL OUT =       4.0591E-04             TOTAL OUT =       2.4000E-04

            IN - OUT =           0.0000              IN - OUT =      -1.4552E-11

 PERCENT DISCREPANCY =           0.00     PERCENT DISCREPANCY =           0.00






         TIME SUMMARY AT END OF TIME STEP    1 IN STRESS PERIOD  116
                    SECONDS     MINUTES      HOURS       DAYS        YEARS
                    -----------------------------------------------------------
   TIME STEP LENGTH  1259.7      20.995     0.34992     1.45800E-02 3.99179E-05
 STRESS PERIOD TIME  1259.7      20.995     0.34992     1.45800E-02 3.99179E-05
         TOTAL TIME 1.46127E+05  2435.4      40.591      1.6913     4.63048E-03
1
1
                            STRESS PERIOD NO.  117, LENGTH =  0.1458000E-01
                            -----------------------------------------------

                              NUMBER OF TIME STEPS =     1

                               MULTIPLIER FOR DELT =     1.000

                            INITIAL TIME STEP SIZE =  0.1458000E-01

 WELL NO.  LAYER   ROW   COL   STRESS RATE         
 --------------------------------------------------
      1      1      1      1      0.2400E-03

      1 WELL 
 
 SOLVING FOR HEAD 

 OUTPUT CONTROL FOR STRESS PERIOD  117   TIME STEP    1
    SAVE HEAD FOR ALL LAYERS
    SAVE BUDGET
 UBDSV1 SAVING "         STORAGE" ON UNIT  31 AT TIME STEP  1, STRESS PERIOD 117
 UBDSV2 SAVING "   CONSTANT HEAD" ON UNIT  31 AT TIME STEP  1, STRESS PERIOD 117
 UBDSV1 SAVING "FLOW RIGHT FACE " ON UNIT  31 AT TIME STEP  1, STRESS PERIOD 117
 UBDSV4 SAVING "           WELLS" ON UNIT  31 AT TIME STEP  1, STRESS PERIOD 117

 SAVING SATURATED THICKNESS AND FLOW TERMS ON UNIT  333 FOR MT3DMS
 BY THE LINK-MT3DMS PACKAGE V7 AT TIME STEP    1, STRESS PERIOD  117


 HEAD WILL BE SAVED ON UNIT   30 AT END OF TIME STEP    1, STRESS PERIOD  117
1
  VOLUMETRIC BUDGET FOR ENTIRE MODEL AT END OF TIME STEP    1, STRESS PERIOD 117
  ------------------------------------------------------------------------------

     CUMULATIVE VOLUMES      L**3       RATES FOR THIS TIME STEP      L**3/T
     ------------------                 ------------------------

           IN:                                      IN:
           ---                                      ---
             STORAGE =           0.0000               STORAGE =           0.0000
       CONSTANT HEAD =           0.0000         CONSTANT HEAD =           0.0000
               WELLS =       4.0941E-04                 WELLS =       2.4000E-04

            TOTAL IN =       4.0941E-04              TOTAL IN =       2.4000E-04

          OUT:                                     OUT:
          ----                                     ----
             STORAGE =           0.0000               STORAGE =           0.0000
       CONSTANT HEAD =       4.0941E-04         CONSTANT HEAD =       2.4000E-04
               WELLS =           0.0000                 WELLS =           0.0000

           TOTAL OUT =       4.0941E-04             TOTAL OUT =       2.4000E-04

            IN - OUT =           0.0000              IN - OUT =      -1.4552E-11

 PERCENT DISCREPANCY =           0.00     PERCENT DISCREPANCY =           0.00






         TIME SUMMARY AT END OF TIME STEP    1 IN STRESS PERIOD  117
                    SECONDS     MINUTES      HOURS       DAYS        YEARS
                    -----------------------------------------------------------
   TIME STEP LENGTH  1259.7      20.995     0.34992     1.45800E-02 3.99179E-05
 STRESS PERIOD TIME  1259.7      20.995     0.34992     1.45800E-02 3.99179E-05
         TOTAL TIME 1.47386E+05  2456.4      40.941      1.7059     4.67039E-03
1
1
                            STRESS PERIOD NO.  118, LENGTH =  0.1458000E-01
                            -----------------------------------------------

                              NUMBER OF TIME STEPS =     1

                               MULTIPLIER FOR DELT =     1.000

                            INITIAL TIME STEP SIZE =  0.1458000E-01

 WELL NO.  LAYER   ROW   COL   STRESS RATE         
 --------------------------------------------------
      1      1      1      1      0.2400E-03

      1 WELL 
 
 SOLVING FOR HEAD 

 OUTPUT CONTROL FOR STRESS PERIOD  118   TIME STEP    1
    SAVE HEAD FOR ALL LAYERS
    SAVE BUDGET
 UBDSV1 SAVING "         STORAGE" ON UNIT  31 AT TIME STEP  1, STRESS PERIOD 118
 UBDSV2 SAVING "   CONSTANT HEAD" ON UNIT  31 AT TIME STEP  1, STRESS PERIOD 118
 UBDSV1 SAVING "FLOW RIGHT FACE " ON UNIT  31 AT TIME STEP  1, STRESS PERIOD 118
 UBDSV4 SAVING "           WELLS" ON UNIT  31 AT TIME STEP  1, STRESS PERIOD 118

 SAVING SATURATED THICKNESS AND FLOW TERMS ON UNIT  333 FOR MT3DMS
 BY THE LINK-MT3DMS PACKAGE V7 AT TIME STEP    1, STRESS PERIOD  118


 HEAD WILL BE SAVED ON UNIT   30 AT END OF TIME STEP    1, STRESS PERIOD  118
1
  VOLUMETRIC BUDGET FOR ENTIRE MODEL AT END OF TIME STEP    1, STRESS PERIOD 118
  ------------------------------------------------------------------------------

     CUMULATIVE VOLUMES      L**3       RATES FOR THIS TIME STEP      L**3/T
     ------------------                 ------------------------

           IN:                                      IN:
           ---                                      ---
             STORAGE =           0.0000               STORAGE =           0.0000
       CONSTANT HEAD =           0.0000         CONSTANT HEAD =           0.0000
               WELLS =       4.1291E-04                 WELLS =       2.4000E-04

            TOTAL IN =       4.1291E-04              TOTAL IN =       2.4000E-04

          OUT:                                     OUT:
          ----                                     ----
             STORAGE =           0.0000               STORAGE =           0.0000
       CONSTANT HEAD =       4.1291E-04         CONSTANT HEAD =       2.4000E-04
               WELLS =           0.0000                 WELLS =           0.0000

           TOTAL OUT =       4.1291E-04             TOTAL OUT =       2.4000E-04

            IN - OUT =           0.0000              IN - OUT =      -1.4552E-11

 PERCENT DISCREPANCY =           0.00     PERCENT DISCREPANCY =           0.00






         TIME SUMMARY AT END OF TIME STEP    1 IN STRESS PERIOD  118
                    SECONDS     MINUTES      HOURS       DAYS        YEARS
                    -----------------------------------------------------------
   TIME STEP LENGTH  1259.7      20.995     0.34992     1.45800E-02 3.99179E-05
 STRESS PERIOD TIME  1259.7      20.995     0.34992     1.45800E-02 3.99179E-05
         TOTAL TIME 1.48646E+05  2477.4      41.291      1.7204     4.71031E-03
1
1
                            STRESS PERIOD NO.  119, LENGTH =  0.1458000E-01
                            -----------------------------------------------

                              NUMBER OF TIME STEPS =     1

                               MULTIPLIER FOR DELT =     1.000

                            INITIAL TIME STEP SIZE =  0.1458000E-01

 WELL NO.  LAYER   ROW   COL   STRESS RATE         
 --------------------------------------------------
      1      1      1      1      0.2400E-03

      1 WELL 
 
 SOLVING FOR HEAD 

 OUTPUT CONTROL FOR STRESS PERIOD  119   TIME STEP    1
    SAVE HEAD FOR ALL LAYERS
    SAVE BUDGET
 UBDSV1 SAVING "         STORAGE" ON UNIT  31 AT TIME STEP  1, STRESS PERIOD 119
 UBDSV2 SAVING "   CONSTANT HEAD" ON UNIT  31 AT TIME STEP  1, STRESS PERIOD 119
 UBDSV1 SAVING "FLOW RIGHT FACE " ON UNIT  31 AT TIME STEP  1, STRESS PERIOD 119
 UBDSV4 SAVING "           WELLS" ON UNIT  31 AT TIME STEP  1, STRESS PERIOD 119

 SAVING SATURATED THICKNESS AND FLOW TERMS ON UNIT  333 FOR MT3DMS
 BY THE LINK-MT3DMS PACKAGE V7 AT TIME STEP    1, STRESS PERIOD  119


 HEAD WILL BE SAVED ON UNIT   30 AT END OF TIME STEP    1, STRESS PERIOD  119
1
  VOLUMETRIC BUDGET FOR ENTIRE MODEL AT END OF TIME STEP    1, STRESS PERIOD 119
  ------------------------------------------------------------------------------

     CUMULATIVE VOLUMES      L**3       RATES FOR THIS TIME STEP      L**3/T
     ------------------                 ------------------------

           IN:                                      IN:
           ---                                      ---
             STORAGE =           0.0000               STORAGE =           0.0000
       CONSTANT HEAD =           0.0000         CONSTANT HEAD =           0.0000
               WELLS =       4.1641E-04                 WELLS =       2.4000E-04

            TOTAL IN =       4.1641E-04              TOTAL IN =       2.4000E-04

          OUT:                                     OUT:
          ----                                     ----
             STORAGE =           0.0000               STORAGE =           0.0000
       CONSTANT HEAD =       4.1641E-04         CONSTANT HEAD =       2.4000E-04
               WELLS =           0.0000                 WELLS =           0.0000

           TOTAL OUT =       4.1641E-04             TOTAL OUT =       2.4000E-04

            IN - OUT =           0.0000              IN - OUT =      -1.4552E-11

 PERCENT DISCREPANCY =           0.00     PERCENT DISCREPANCY =           0.00






         TIME SUMMARY AT END OF TIME STEP    1 IN STRESS PERIOD  119
                    SECONDS     MINUTES      HOURS       DAYS        YEARS
                    -----------------------------------------------------------
   TIME STEP LENGTH  1259.7      20.995     0.34992     1.45800E-02 3.99179E-05
 STRESS PERIOD TIME  1259.7      20.995     0.34992     1.45800E-02 3.99179E-05
         TOTAL TIME 1.49906E+05  2498.4      41.641      1.7350     4.75023E-03
1
1
                            STRESS PERIOD NO.  120, LENGTH =  0.1458000E-01
                            -----------------------------------------------

                              NUMBER OF TIME STEPS =     1

                               MULTIPLIER FOR DELT =     1.000

                            INITIAL TIME STEP SIZE =  0.1458000E-01

 WELL NO.  LAYER   ROW   COL   STRESS RATE         
 --------------------------------------------------
      1      1      1      1      0.2400E-03

      1 WELL 
 
 SOLVING FOR HEAD 

 OUTPUT CONTROL FOR STRESS PERIOD  120   TIME STEP    1
    SAVE HEAD FOR ALL LAYERS
    SAVE BUDGET
 UBDSV1 SAVING "         STORAGE" ON UNIT  31 AT TIME STEP  1, STRESS PERIOD 120
 UBDSV2 SAVING "   CONSTANT HEAD" ON UNIT  31 AT TIME STEP  1, STRESS PERIOD 120
 UBDSV1 SAVING "FLOW RIGHT FACE " ON UNIT  31 AT TIME STEP  1, STRESS PERIOD 120
 UBDSV4 SAVING "           WELLS" ON UNIT  31 AT TIME STEP  1, STRESS PERIOD 120

 SAVING SATURATED THICKNESS AND FLOW TERMS ON UNIT  333 FOR MT3DMS
 BY THE LINK-MT3DMS PACKAGE V7 AT TIME STEP    1, STRESS PERIOD  120


 HEAD WILL BE SAVED ON UNIT   30 AT END OF TIME STEP    1, STRESS PERIOD  120
1
  VOLUMETRIC BUDGET FOR ENTIRE MODEL AT END OF TIME STEP    1, STRESS PERIOD 120
  ------------------------------------------------------------------------------

     CUMULATIVE VOLUMES      L**3       RATES FOR THIS TIME STEP      L**3/T
     ------------------                 ------------------------

           IN:                                      IN:
           ---                                      ---
             STORAGE =           0.0000               STORAGE =           0.0000
       CONSTANT HEAD =           0.0000         CONSTANT HEAD =           0.0000
               WELLS =       4.1990E-04                 WELLS =       2.4000E-04

            TOTAL IN =       4.1990E-04              TOTAL IN =       2.4000E-04

          OUT:                                     OUT:
          ----                                     ----
             STORAGE =           0.0000               STORAGE =           0.0000
       CONSTANT HEAD =       4.1990E-04         CONSTANT HEAD =       2.4000E-04
               WELLS =           0.0000                 WELLS =           0.0000

           TOTAL OUT =       4.1990E-04             TOTAL OUT =       2.4000E-04

            IN - OUT =           0.0000              IN - OUT =      -1.4552E-11

 PERCENT DISCREPANCY =           0.00     PERCENT DISCREPANCY =           0.00






         TIME SUMMARY AT END OF TIME STEP    1 IN STRESS PERIOD  120
                    SECONDS     MINUTES      HOURS       DAYS        YEARS
                    -----------------------------------------------------------
   TIME STEP LENGTH  1259.7      20.995     0.34992     1.45800E-02 3.99179E-05
 STRESS PERIOD TIME  1259.7      20.995     0.34992     1.45800E-02 3.99179E-05
         TOTAL TIME 1.51166E+05  2519.4      41.990      1.7496     4.79015E-03
1
1
                            STRESS PERIOD NO.  121, LENGTH =  0.1458000E-01
                            -----------------------------------------------

                              NUMBER OF TIME STEPS =     1

                               MULTIPLIER FOR DELT =     1.000

                            INITIAL TIME STEP SIZE =  0.1458000E-01

 WELL NO.  LAYER   ROW   COL   STRESS RATE         
 --------------------------------------------------
      1      1      1      1      0.2400E-03

      1 WELL 
 
 SOLVING FOR HEAD 

 OUTPUT CONTROL FOR STRESS PERIOD  121   TIME STEP    1
    SAVE HEAD FOR ALL LAYERS
    SAVE BUDGET
 UBDSV1 SAVING "         STORAGE" ON UNIT  31 AT TIME STEP  1, STRESS PERIOD 121
 UBDSV2 SAVING "   CONSTANT HEAD" ON UNIT  31 AT TIME STEP  1, STRESS PERIOD 121
 UBDSV1 SAVING "FLOW RIGHT FACE " ON UNIT  31 AT TIME STEP  1, STRESS PERIOD 121
 UBDSV4 SAVING "           WELLS" ON UNIT  31 AT TIME STEP  1, STRESS PERIOD 121

 SAVING SATURATED THICKNESS AND FLOW TERMS ON UNIT  333 FOR MT3DMS
 BY THE LINK-MT3DMS PACKAGE V7 AT TIME STEP    1, STRESS PERIOD  121


 HEAD WILL BE SAVED ON UNIT   30 AT END OF TIME STEP    1, STRESS PERIOD  121
1
  VOLUMETRIC BUDGET FOR ENTIRE MODEL AT END OF TIME STEP    1, STRESS PERIOD 121
  ------------------------------------------------------------------------------

     CUMULATIVE VOLUMES      L**3       RATES FOR THIS TIME STEP      L**3/T
     ------------------                 ------------------------

           IN:                                      IN:
           ---                                      ---
             STORAGE =           0.0000               STORAGE =           0.0000
       CONSTANT HEAD =           0.0000         CONSTANT HEAD =           0.0000
               WELLS =       4.2340E-04                 WELLS =       2.4000E-04

            TOTAL IN =       4.2340E-04              TOTAL IN =       2.4000E-04

          OUT:                                     OUT:
          ----                                     ----
             STORAGE =           0.0000               STORAGE =           0.0000
       CONSTANT HEAD =       4.2340E-04         CONSTANT HEAD =       2.4000E-04
               WELLS =           0.0000                 WELLS =           0.0000

           TOTAL OUT =       4.2340E-04             TOTAL OUT =       2.4000E-04

            IN - OUT =           0.0000              IN - OUT =      -1.4552E-11

 PERCENT DISCREPANCY =           0.00     PERCENT DISCREPANCY =           0.00






         TIME SUMMARY AT END OF TIME STEP    1 IN STRESS PERIOD  121
                    SECONDS     MINUTES      HOURS       DAYS        YEARS
                    -----------------------------------------------------------
   TIME STEP LENGTH  1259.7      20.995     0.34992     1.45800E-02 3.99179E-05
 STRESS PERIOD TIME  1259.7      20.995     0.34992     1.45800E-02 3.99179E-05
         TOTAL TIME 1.52425E+05  2540.4      42.340      1.7642     4.83006E-03
1
1
                            STRESS PERIOD NO.  122, LENGTH =  0.1458000E-01
                            -----------------------------------------------

                              NUMBER OF TIME STEPS =     1

                               MULTIPLIER FOR DELT =     1.000

                            INITIAL TIME STEP SIZE =  0.1458000E-01

 WELL NO.  LAYER   ROW   COL   STRESS RATE         
 --------------------------------------------------
      1      1      1      1      0.2400E-03

      1 WELL 
 
 SOLVING FOR HEAD 

 OUTPUT CONTROL FOR STRESS PERIOD  122   TIME STEP    1
    SAVE HEAD FOR ALL LAYERS
    SAVE BUDGET
 UBDSV1 SAVING "         STORAGE" ON UNIT  31 AT TIME STEP  1, STRESS PERIOD 122
 UBDSV2 SAVING "   CONSTANT HEAD" ON UNIT  31 AT TIME STEP  1, STRESS PERIOD 122
 UBDSV1 SAVING "FLOW RIGHT FACE " ON UNIT  31 AT TIME STEP  1, STRESS PERIOD 122
 UBDSV4 SAVING "           WELLS" ON UNIT  31 AT TIME STEP  1, STRESS PERIOD 122

 SAVING SATURATED THICKNESS AND FLOW TERMS ON UNIT  333 FOR MT3DMS
 BY THE LINK-MT3DMS PACKAGE V7 AT TIME STEP    1, STRESS PERIOD  122


 HEAD WILL BE SAVED ON UNIT   30 AT END OF TIME STEP    1, STRESS PERIOD  122
1
  VOLUMETRIC BUDGET FOR ENTIRE MODEL AT END OF TIME STEP    1, STRESS PERIOD 122
  ------------------------------------------------------------------------------

     CUMULATIVE VOLUMES      L**3       RATES FOR THIS TIME STEP      L**3/T
     ------------------                 ------------------------

           IN:                                      IN:
           ---                                      ---
             STORAGE =           0.0000               STORAGE =           0.0000
       CONSTANT HEAD =           0.0000         CONSTANT HEAD =           0.0000
               WELLS =       4.2690E-04                 WELLS =       2.4000E-04

            TOTAL IN =       4.2690E-04              TOTAL IN =       2.4000E-04

          OUT:                                     OUT:
          ----                                     ----
             STORAGE =           0.0000               STORAGE =           0.0000
       CONSTANT HEAD =       4.2690E-04         CONSTANT HEAD =       2.4000E-04
               WELLS =           0.0000                 WELLS =           0.0000

           TOTAL OUT =       4.2690E-04             TOTAL OUT =       2.4000E-04

            IN - OUT =           0.0000              IN - OUT =      -1.4552E-11

 PERCENT DISCREPANCY =           0.00     PERCENT DISCREPANCY =           0.00






         TIME SUMMARY AT END OF TIME STEP    1 IN STRESS PERIOD  122
                    SECONDS     MINUTES      HOURS       DAYS        YEARS
                    -----------------------------------------------------------
   TIME STEP LENGTH  1259.7      20.995     0.34992     1.45800E-02 3.99179E-05
 STRESS PERIOD TIME  1259.7      20.995     0.34992     1.45800E-02 3.99179E-05
         TOTAL TIME 1.53685E+05  2561.4      42.690      1.7788     4.86998E-03
1
1
                            STRESS PERIOD NO.  123, LENGTH =  0.1458000E-01
                            -----------------------------------------------

                              NUMBER OF TIME STEPS =     1

                               MULTIPLIER FOR DELT =     1.000

                            INITIAL TIME STEP SIZE =  0.1458000E-01

 WELL NO.  LAYER   ROW   COL   STRESS RATE         
 --------------------------------------------------
      1      1      1      1      0.2400E-03

      1 WELL 
 
 SOLVING FOR HEAD 

 OUTPUT CONTROL FOR STRESS PERIOD  123   TIME STEP    1
    SAVE HEAD FOR ALL LAYERS
    SAVE BUDGET
 UBDSV1 SAVING "         STORAGE" ON UNIT  31 AT TIME STEP  1, STRESS PERIOD 123
 UBDSV2 SAVING "   CONSTANT HEAD" ON UNIT  31 AT TIME STEP  1, STRESS PERIOD 123
 UBDSV1 SAVING "FLOW RIGHT FACE " ON UNIT  31 AT TIME STEP  1, STRESS PERIOD 123
 UBDSV4 SAVING "           WELLS" ON UNIT  31 AT TIME STEP  1, STRESS PERIOD 123

 SAVING SATURATED THICKNESS AND FLOW TERMS ON UNIT  333 FOR MT3DMS
 BY THE LINK-MT3DMS PACKAGE V7 AT TIME STEP    1, STRESS PERIOD  123


 HEAD WILL BE SAVED ON UNIT   30 AT END OF TIME STEP    1, STRESS PERIOD  123
1
  VOLUMETRIC BUDGET FOR ENTIRE MODEL AT END OF TIME STEP    1, STRESS PERIOD 123
  ------------------------------------------------------------------------------

     CUMULATIVE VOLUMES      L**3       RATES FOR THIS TIME STEP      L**3/T
     ------------------                 ------------------------

           IN:                                      IN:
           ---                                      ---
             STORAGE =           0.0000               STORAGE =           0.0000
       CONSTANT HEAD =           0.0000         CONSTANT HEAD =           0.0000
               WELLS =       4.3040E-04                 WELLS =       2.4000E-04

            TOTAL IN =       4.3040E-04              TOTAL IN =       2.4000E-04

          OUT:                                     OUT:
          ----                                     ----
             STORAGE =           0.0000               STORAGE =           0.0000
       CONSTANT HEAD =       4.3040E-04         CONSTANT HEAD =       2.4000E-04
               WELLS =           0.0000                 WELLS =           0.0000

           TOTAL OUT =       4.3040E-04             TOTAL OUT =       2.4000E-04

            IN - OUT =           0.0000              IN - OUT =      -1.4552E-11

 PERCENT DISCREPANCY =           0.00     PERCENT DISCREPANCY =           0.00






         TIME SUMMARY AT END OF TIME STEP    1 IN STRESS PERIOD  123
                    SECONDS     MINUTES      HOURS       DAYS        YEARS
                    -----------------------------------------------------------
   TIME STEP LENGTH  1259.7      20.995     0.34992     1.45800E-02 3.99179E-05
 STRESS PERIOD TIME  1259.7      20.995     0.34992     1.45800E-02 3.99179E-05
         TOTAL TIME 1.54945E+05  2582.4      43.040      1.7933     4.90990E-03
1
1
                            STRESS PERIOD NO.  124, LENGTH =  0.1458000E-01
                            -----------------------------------------------

                              NUMBER OF TIME STEPS =     1

                               MULTIPLIER FOR DELT =     1.000

                            INITIAL TIME STEP SIZE =  0.1458000E-01

 WELL NO.  LAYER   ROW   COL   STRESS RATE         
 --------------------------------------------------
      1      1      1      1      0.2400E-03

      1 WELL 
 
 SOLVING FOR HEAD 

 OUTPUT CONTROL FOR STRESS PERIOD  124   TIME STEP    1
    SAVE HEAD FOR ALL LAYERS
    SAVE BUDGET
 UBDSV1 SAVING "         STORAGE" ON UNIT  31 AT TIME STEP  1, STRESS PERIOD 124
 UBDSV2 SAVING "   CONSTANT HEAD" ON UNIT  31 AT TIME STEP  1, STRESS PERIOD 124
 UBDSV1 SAVING "FLOW RIGHT FACE " ON UNIT  31 AT TIME STEP  1, STRESS PERIOD 124
 UBDSV4 SAVING "           WELLS" ON UNIT  31 AT TIME STEP  1, STRESS PERIOD 124

 SAVING SATURATED THICKNESS AND FLOW TERMS ON UNIT  333 FOR MT3DMS
 BY THE LINK-MT3DMS PACKAGE V7 AT TIME STEP    1, STRESS PERIOD  124


 HEAD WILL BE SAVED ON UNIT   30 AT END OF TIME STEP    1, STRESS PERIOD  124
1
  VOLUMETRIC BUDGET FOR ENTIRE MODEL AT END OF TIME STEP    1, STRESS PERIOD 124
  ------------------------------------------------------------------------------

     CUMULATIVE VOLUMES      L**3       RATES FOR THIS TIME STEP      L**3/T
     ------------------                 ------------------------

           IN:                                      IN:
           ---                                      ---
             STORAGE =           0.0000               STORAGE =           0.0000
       CONSTANT HEAD =           0.0000         CONSTANT HEAD =           0.0000
               WELLS =       4.3390E-04                 WELLS =       2.4000E-04

            TOTAL IN =       4.3390E-04              TOTAL IN =       2.4000E-04

          OUT:                                     OUT:
          ----                                     ----
             STORAGE =           0.0000               STORAGE =           0.0000
       CONSTANT HEAD =       4.3390E-04         CONSTANT HEAD =       2.4000E-04
               WELLS =           0.0000                 WELLS =           0.0000

           TOTAL OUT =       4.3390E-04             TOTAL OUT =       2.4000E-04

            IN - OUT =           0.0000              IN - OUT =      -1.4552E-11

 PERCENT DISCREPANCY =           0.00     PERCENT DISCREPANCY =           0.00






         TIME SUMMARY AT END OF TIME STEP    1 IN STRESS PERIOD  124
                    SECONDS     MINUTES      HOURS       DAYS        YEARS
                    -----------------------------------------------------------
   TIME STEP LENGTH  1259.7      20.995     0.34992     1.45800E-02 3.99179E-05
 STRESS PERIOD TIME  1259.7      20.995     0.34992     1.45800E-02 3.99179E-05
         TOTAL TIME 1.56204E+05  2603.4      43.390      1.8079     4.94982E-03
1
1
                            STRESS PERIOD NO.  125, LENGTH =  0.1458000E-01
                            -----------------------------------------------

                              NUMBER OF TIME STEPS =     1

                               MULTIPLIER FOR DELT =     1.000

                            INITIAL TIME STEP SIZE =  0.1458000E-01

 WELL NO.  LAYER   ROW   COL   STRESS RATE         
 --------------------------------------------------
      1      1      1      1      0.2400E-03

      1 WELL 
 
 SOLVING FOR HEAD 

 OUTPUT CONTROL FOR STRESS PERIOD  125   TIME STEP    1
    SAVE HEAD FOR ALL LAYERS
    SAVE BUDGET
 UBDSV1 SAVING "         STORAGE" ON UNIT  31 AT TIME STEP  1, STRESS PERIOD 125
 UBDSV2 SAVING "   CONSTANT HEAD" ON UNIT  31 AT TIME STEP  1, STRESS PERIOD 125
 UBDSV1 SAVING "FLOW RIGHT FACE " ON UNIT  31 AT TIME STEP  1, STRESS PERIOD 125
 UBDSV4 SAVING "           WELLS" ON UNIT  31 AT TIME STEP  1, STRESS PERIOD 125

 SAVING SATURATED THICKNESS AND FLOW TERMS ON UNIT  333 FOR MT3DMS
 BY THE LINK-MT3DMS PACKAGE V7 AT TIME STEP    1, STRESS PERIOD  125


 HEAD WILL BE SAVED ON UNIT   30 AT END OF TIME STEP    1, STRESS PERIOD  125
1
  VOLUMETRIC BUDGET FOR ENTIRE MODEL AT END OF TIME STEP    1, STRESS PERIOD 125
  ------------------------------------------------------------------------------

     CUMULATIVE VOLUMES      L**3       RATES FOR THIS TIME STEP      L**3/T
     ------------------                 ------------------------

           IN:                                      IN:
           ---                                      ---
             STORAGE =           0.0000               STORAGE =           0.0000
       CONSTANT HEAD =           0.0000         CONSTANT HEAD =           0.0000
               WELLS =       4.3740E-04                 WELLS =       2.4000E-04

            TOTAL IN =       4.3740E-04              TOTAL IN =       2.4000E-04

          OUT:                                     OUT:
          ----                                     ----
             STORAGE =           0.0000               STORAGE =           0.0000
       CONSTANT HEAD =       4.3740E-04         CONSTANT HEAD =       2.4000E-04
               WELLS =           0.0000                 WELLS =           0.0000

           TOTAL OUT =       4.3740E-04             TOTAL OUT =       2.4000E-04

            IN - OUT =           0.0000              IN - OUT =      -1.4552E-11

 PERCENT DISCREPANCY =           0.00     PERCENT DISCREPANCY =           0.00






         TIME SUMMARY AT END OF TIME STEP    1 IN STRESS PERIOD  125
                    SECONDS     MINUTES      HOURS       DAYS        YEARS
                    -----------------------------------------------------------
   TIME STEP LENGTH  1259.7      20.995     0.34992     1.45800E-02 3.99179E-05
 STRESS PERIOD TIME  1259.7      20.995     0.34992     1.45800E-02 3.99179E-05
         TOTAL TIME 1.57464E+05  2624.4      43.740      1.8225     4.98974E-03
1
1
                            STRESS PERIOD NO.  126, LENGTH =  0.1458000E-01
                            -----------------------------------------------

                              NUMBER OF TIME STEPS =     1

                               MULTIPLIER FOR DELT =     1.000

                            INITIAL TIME STEP SIZE =  0.1458000E-01

 WELL NO.  LAYER   ROW   COL   STRESS RATE         
 --------------------------------------------------
      1      1      1      1      0.2400E-03

      1 WELL 
 
 SOLVING FOR HEAD 

 OUTPUT CONTROL FOR STRESS PERIOD  126   TIME STEP    1
    SAVE HEAD FOR ALL LAYERS
    SAVE BUDGET
 UBDSV1 SAVING "         STORAGE" ON UNIT  31 AT TIME STEP  1, STRESS PERIOD 126
 UBDSV2 SAVING "   CONSTANT HEAD" ON UNIT  31 AT TIME STEP  1, STRESS PERIOD 126
 UBDSV1 SAVING "FLOW RIGHT FACE " ON UNIT  31 AT TIME STEP  1, STRESS PERIOD 126
 UBDSV4 SAVING "           WELLS" ON UNIT  31 AT TIME STEP  1, STRESS PERIOD 126

 SAVING SATURATED THICKNESS AND FLOW TERMS ON UNIT  333 FOR MT3DMS
 BY THE LINK-MT3DMS PACKAGE V7 AT TIME STEP    1, STRESS PERIOD  126


 HEAD WILL BE SAVED ON UNIT   30 AT END OF TIME STEP    1, STRESS PERIOD  126
1
  VOLUMETRIC BUDGET FOR ENTIRE MODEL AT END OF TIME STEP    1, STRESS PERIOD 126
  ------------------------------------------------------------------------------

     CUMULATIVE VOLUMES      L**3       RATES FOR THIS TIME STEP      L**3/T
     ------------------                 ------------------------

           IN:                                      IN:
           ---                                      ---
             STORAGE =           0.0000               STORAGE =           0.0000
       CONSTANT HEAD =           0.0000         CONSTANT HEAD =           0.0000
               WELLS =       4.4090E-04                 WELLS =       2.4000E-04

            TOTAL IN =       4.4090E-04              TOTAL IN =       2.4000E-04

          OUT:                                     OUT:
          ----                                     ----
             STORAGE =           0.0000               STORAGE =           0.0000
       CONSTANT HEAD =       4.4090E-04         CONSTANT HEAD =       2.4000E-04
               WELLS =           0.0000                 WELLS =           0.0000

           TOTAL OUT =       4.4090E-04             TOTAL OUT =       2.4000E-04

            IN - OUT =           0.0000              IN - OUT =      -1.4552E-11

 PERCENT DISCREPANCY =           0.00     PERCENT DISCREPANCY =           0.00






         TIME SUMMARY AT END OF TIME STEP    1 IN STRESS PERIOD  126
                    SECONDS     MINUTES      HOURS       DAYS        YEARS
                    -----------------------------------------------------------
   TIME STEP LENGTH  1259.7      20.995     0.34992     1.45800E-02 3.99179E-05
 STRESS PERIOD TIME  1259.7      20.995     0.34992     1.45800E-02 3.99179E-05
         TOTAL TIME 1.58724E+05  2645.4      44.090      1.8371     5.02965E-03
1
1
                            STRESS PERIOD NO.  127, LENGTH =  0.1458000E-01
                            -----------------------------------------------

                              NUMBER OF TIME STEPS =     1

                               MULTIPLIER FOR DELT =     1.000

                            INITIAL TIME STEP SIZE =  0.1458000E-01

 WELL NO.  LAYER   ROW   COL   STRESS RATE         
 --------------------------------------------------
      1      1      1      1      0.2400E-03

      1 WELL 
 
 SOLVING FOR HEAD 

 OUTPUT CONTROL FOR STRESS PERIOD  127   TIME STEP    1
    SAVE HEAD FOR ALL LAYERS
    SAVE BUDGET
 UBDSV1 SAVING "         STORAGE" ON UNIT  31 AT TIME STEP  1, STRESS PERIOD 127
 UBDSV2 SAVING "   CONSTANT HEAD" ON UNIT  31 AT TIME STEP  1, STRESS PERIOD 127
 UBDSV1 SAVING "FLOW RIGHT FACE " ON UNIT  31 AT TIME STEP  1, STRESS PERIOD 127
 UBDSV4 SAVING "           WELLS" ON UNIT  31 AT TIME STEP  1, STRESS PERIOD 127

 SAVING SATURATED THICKNESS AND FLOW TERMS ON UNIT  333 FOR MT3DMS
 BY THE LINK-MT3DMS PACKAGE V7 AT TIME STEP    1, STRESS PERIOD  127


 HEAD WILL BE SAVED ON UNIT   30 AT END OF TIME STEP    1, STRESS PERIOD  127
1
  VOLUMETRIC BUDGET FOR ENTIRE MODEL AT END OF TIME STEP    1, STRESS PERIOD 127
  ------------------------------------------------------------------------------

     CUMULATIVE VOLUMES      L**3       RATES FOR THIS TIME STEP      L**3/T
     ------------------                 ------------------------

           IN:                                      IN:
           ---                                      ---
             STORAGE =           0.0000               STORAGE =           0.0000
       CONSTANT HEAD =           0.0000         CONSTANT HEAD =           0.0000
               WELLS =       4.4440E-04                 WELLS =       2.4000E-04

            TOTAL IN =       4.4440E-04              TOTAL IN =       2.4000E-04

          OUT:                                     OUT:
          ----                                     ----
             STORAGE =           0.0000               STORAGE =           0.0000
       CONSTANT HEAD =       4.4440E-04         CONSTANT HEAD =       2.4000E-04
               WELLS =           0.0000                 WELLS =           0.0000

           TOTAL OUT =       4.4440E-04             TOTAL OUT =       2.4000E-04

            IN - OUT =           0.0000              IN - OUT =      -1.4552E-11

 PERCENT DISCREPANCY =           0.00     PERCENT DISCREPANCY =           0.00






         TIME SUMMARY AT END OF TIME STEP    1 IN STRESS PERIOD  127
                    SECONDS     MINUTES      HOURS       DAYS        YEARS
                    -----------------------------------------------------------
   TIME STEP LENGTH  1259.7      20.995     0.34992     1.45800E-02 3.99179E-05
 STRESS PERIOD TIME  1259.7      20.995     0.34992     1.45800E-02 3.99179E-05
         TOTAL TIME 1.59984E+05  2666.4      44.440      1.8517     5.06957E-03
1
1
                            STRESS PERIOD NO.  128, LENGTH =  0.1458000E-01
                            -----------------------------------------------

                              NUMBER OF TIME STEPS =     1

                               MULTIPLIER FOR DELT =     1.000

                            INITIAL TIME STEP SIZE =  0.1458000E-01

 WELL NO.  LAYER   ROW   COL   STRESS RATE         
 --------------------------------------------------
      1      1      1      1      0.2400E-03

      1 WELL 
 
 SOLVING FOR HEAD 

 OUTPUT CONTROL FOR STRESS PERIOD  128   TIME STEP    1
    SAVE HEAD FOR ALL LAYERS
    SAVE BUDGET
 UBDSV1 SAVING "         STORAGE" ON UNIT  31 AT TIME STEP  1, STRESS PERIOD 128
 UBDSV2 SAVING "   CONSTANT HEAD" ON UNIT  31 AT TIME STEP  1, STRESS PERIOD 128
 UBDSV1 SAVING "FLOW RIGHT FACE " ON UNIT  31 AT TIME STEP  1, STRESS PERIOD 128
 UBDSV4 SAVING "           WELLS" ON UNIT  31 AT TIME STEP  1, STRESS PERIOD 128

 SAVING SATURATED THICKNESS AND FLOW TERMS ON UNIT  333 FOR MT3DMS
 BY THE LINK-MT3DMS PACKAGE V7 AT TIME STEP    1, STRESS PERIOD  128


 HEAD WILL BE SAVED ON UNIT   30 AT END OF TIME STEP    1, STRESS PERIOD  128
1
  VOLUMETRIC BUDGET FOR ENTIRE MODEL AT END OF TIME STEP    1, STRESS PERIOD 128
  ------------------------------------------------------------------------------

     CUMULATIVE VOLUMES      L**3       RATES FOR THIS TIME STEP      L**3/T
     ------------------                 ------------------------

           IN:                                      IN:
           ---                                      ---
             STORAGE =           0.0000               STORAGE =           0.0000
       CONSTANT HEAD =           0.0000         CONSTANT HEAD =           0.0000
               WELLS =       4.4790E-04                 WELLS =       2.4000E-04

            TOTAL IN =       4.4790E-04              TOTAL IN =       2.4000E-04

          OUT:                                     OUT:
          ----                                     ----
             STORAGE =           0.0000               STORAGE =           0.0000
       CONSTANT HEAD =       4.4790E-04         CONSTANT HEAD =       2.4000E-04
               WELLS =           0.0000                 WELLS =           0.0000

           TOTAL OUT =       4.4790E-04             TOTAL OUT =       2.4000E-04

            IN - OUT =           0.0000              IN - OUT =      -1.4552E-11

 PERCENT DISCREPANCY =           0.00     PERCENT DISCREPANCY =           0.00






         TIME SUMMARY AT END OF TIME STEP    1 IN STRESS PERIOD  128
                    SECONDS     MINUTES      HOURS       DAYS        YEARS
                    -----------------------------------------------------------
   TIME STEP LENGTH  1259.7      20.995     0.34992     1.45800E-02 3.99179E-05
 STRESS PERIOD TIME  1259.7      20.995     0.34992     1.45800E-02 3.99179E-05
         TOTAL TIME 1.61243E+05  2687.4      44.790      1.8662     5.10949E-03
1
1
                            STRESS PERIOD NO.  129, LENGTH =  0.1458000E-01
                            -----------------------------------------------

                              NUMBER OF TIME STEPS =     1

                               MULTIPLIER FOR DELT =     1.000

                            INITIAL TIME STEP SIZE =  0.1458000E-01

 WELL NO.  LAYER   ROW   COL   STRESS RATE         
 --------------------------------------------------
      1      1      1      1      0.2400E-03

      1 WELL 
 
 SOLVING FOR HEAD 

 OUTPUT CONTROL FOR STRESS PERIOD  129   TIME STEP    1
    SAVE HEAD FOR ALL LAYERS
    SAVE BUDGET
 UBDSV1 SAVING "         STORAGE" ON UNIT  31 AT TIME STEP  1, STRESS PERIOD 129
 UBDSV2 SAVING "   CONSTANT HEAD" ON UNIT  31 AT TIME STEP  1, STRESS PERIOD 129
 UBDSV1 SAVING "FLOW RIGHT FACE " ON UNIT  31 AT TIME STEP  1, STRESS PERIOD 129
 UBDSV4 SAVING "           WELLS" ON UNIT  31 AT TIME STEP  1, STRESS PERIOD 129

 SAVING SATURATED THICKNESS AND FLOW TERMS ON UNIT  333 FOR MT3DMS
 BY THE LINK-MT3DMS PACKAGE V7 AT TIME STEP    1, STRESS PERIOD  129


 HEAD WILL BE SAVED ON UNIT   30 AT END OF TIME STEP    1, STRESS PERIOD  129
1
  VOLUMETRIC BUDGET FOR ENTIRE MODEL AT END OF TIME STEP    1, STRESS PERIOD 129
  ------------------------------------------------------------------------------

     CUMULATIVE VOLUMES      L**3       RATES FOR THIS TIME STEP      L**3/T
     ------------------                 ------------------------

           IN:                                      IN:
           ---                                      ---
             STORAGE =           0.0000               STORAGE =           0.0000
       CONSTANT HEAD =           0.0000         CONSTANT HEAD =           0.0000
               WELLS =       4.5140E-04                 WELLS =       2.4000E-04

            TOTAL IN =       4.5140E-04              TOTAL IN =       2.4000E-04

          OUT:                                     OUT:
          ----                                     ----
             STORAGE =           0.0000               STORAGE =           0.0000
       CONSTANT HEAD =       4.5140E-04         CONSTANT HEAD =       2.4000E-04
               WELLS =           0.0000                 WELLS =           0.0000

           TOTAL OUT =       4.5140E-04             TOTAL OUT =       2.4000E-04

            IN - OUT =           0.0000              IN - OUT =      -1.4552E-11

 PERCENT DISCREPANCY =           0.00     PERCENT DISCREPANCY =           0.00






         TIME SUMMARY AT END OF TIME STEP    1 IN STRESS PERIOD  129
                    SECONDS     MINUTES      HOURS       DAYS        YEARS
                    -----------------------------------------------------------
   TIME STEP LENGTH  1259.7      20.995     0.34992     1.45800E-02 3.99179E-05
 STRESS PERIOD TIME  1259.7      20.995     0.34992     1.45800E-02 3.99179E-05
         TOTAL TIME 1.62503E+05  2708.4      45.140      1.8808     5.14941E-03
1
1
                            STRESS PERIOD NO.  130, LENGTH =  0.1458000E-01
                            -----------------------------------------------

                              NUMBER OF TIME STEPS =     1

                               MULTIPLIER FOR DELT =     1.000

                            INITIAL TIME STEP SIZE =  0.1458000E-01

 WELL NO.  LAYER   ROW   COL   STRESS RATE         
 --------------------------------------------------
      1      1      1      1      0.2400E-03

      1 WELL 
 
 SOLVING FOR HEAD 

 OUTPUT CONTROL FOR STRESS PERIOD  130   TIME STEP    1
    SAVE HEAD FOR ALL LAYERS
    SAVE BUDGET
 UBDSV1 SAVING "         STORAGE" ON UNIT  31 AT TIME STEP  1, STRESS PERIOD 130
 UBDSV2 SAVING "   CONSTANT HEAD" ON UNIT  31 AT TIME STEP  1, STRESS PERIOD 130
 UBDSV1 SAVING "FLOW RIGHT FACE " ON UNIT  31 AT TIME STEP  1, STRESS PERIOD 130
 UBDSV4 SAVING "           WELLS" ON UNIT  31 AT TIME STEP  1, STRESS PERIOD 130

 SAVING SATURATED THICKNESS AND FLOW TERMS ON UNIT  333 FOR MT3DMS
 BY THE LINK-MT3DMS PACKAGE V7 AT TIME STEP    1, STRESS PERIOD  130


 HEAD WILL BE SAVED ON UNIT   30 AT END OF TIME STEP    1, STRESS PERIOD  130
1
  VOLUMETRIC BUDGET FOR ENTIRE MODEL AT END OF TIME STEP    1, STRESS PERIOD 130
  ------------------------------------------------------------------------------

     CUMULATIVE VOLUMES      L**3       RATES FOR THIS TIME STEP      L**3/T
     ------------------                 ------------------------

           IN:                                      IN:
           ---                                      ---
             STORAGE =           0.0000               STORAGE =           0.0000
       CONSTANT HEAD =           0.0000         CONSTANT HEAD =           0.0000
               WELLS =       4.5490E-04                 WELLS =       2.4000E-04

            TOTAL IN =       4.5490E-04              TOTAL IN =       2.4000E-04

          OUT:                                     OUT:
          ----                                     ----
             STORAGE =           0.0000               STORAGE =           0.0000
       CONSTANT HEAD =       4.5490E-04         CONSTANT HEAD =       2.4000E-04
               WELLS =           0.0000                 WELLS =           0.0000

           TOTAL OUT =       4.5490E-04             TOTAL OUT =       2.4000E-04

            IN - OUT =           0.0000              IN - OUT =      -1.4552E-11

 PERCENT DISCREPANCY =           0.00     PERCENT DISCREPANCY =           0.00






         TIME SUMMARY AT END OF TIME STEP    1 IN STRESS PERIOD  130
                    SECONDS     MINUTES      HOURS       DAYS        YEARS
                    -----------------------------------------------------------
   TIME STEP LENGTH  1259.7      20.995     0.34992     1.45800E-02 3.99179E-05
 STRESS PERIOD TIME  1259.7      20.995     0.34992     1.45800E-02 3.99179E-05
         TOTAL TIME 1.63763E+05  2729.4      45.490      1.8954     5.18933E-03
1
1
                            STRESS PERIOD NO.  131, LENGTH =  0.1458000E-01
                            -----------------------------------------------

                              NUMBER OF TIME STEPS =     1

                               MULTIPLIER FOR DELT =     1.000

                            INITIAL TIME STEP SIZE =  0.1458000E-01

 WELL NO.  LAYER   ROW   COL   STRESS RATE         
 --------------------------------------------------
      1      1      1      1      0.2400E-03

      1 WELL 
 
 SOLVING FOR HEAD 

 OUTPUT CONTROL FOR STRESS PERIOD  131   TIME STEP    1
    SAVE HEAD FOR ALL LAYERS
    SAVE BUDGET
 UBDSV1 SAVING "         STORAGE" ON UNIT  31 AT TIME STEP  1, STRESS PERIOD 131
 UBDSV2 SAVING "   CONSTANT HEAD" ON UNIT  31 AT TIME STEP  1, STRESS PERIOD 131
 UBDSV1 SAVING "FLOW RIGHT FACE " ON UNIT  31 AT TIME STEP  1, STRESS PERIOD 131
 UBDSV4 SAVING "           WELLS" ON UNIT  31 AT TIME STEP  1, STRESS PERIOD 131

 SAVING SATURATED THICKNESS AND FLOW TERMS ON UNIT  333 FOR MT3DMS
 BY THE LINK-MT3DMS PACKAGE V7 AT TIME STEP    1, STRESS PERIOD  131


 HEAD WILL BE SAVED ON UNIT   30 AT END OF TIME STEP    1, STRESS PERIOD  131
1
  VOLUMETRIC BUDGET FOR ENTIRE MODEL AT END OF TIME STEP    1, STRESS PERIOD 131
  ------------------------------------------------------------------------------

     CUMULATIVE VOLUMES      L**3       RATES FOR THIS TIME STEP      L**3/T
     ------------------                 ------------------------

           IN:                                      IN:
           ---                                      ---
             STORAGE =           0.0000               STORAGE =           0.0000
       CONSTANT HEAD =           0.0000         CONSTANT HEAD =           0.0000
               WELLS =       4.5840E-04                 WELLS =       2.4000E-04

            TOTAL IN =       4.5840E-04              TOTAL IN =       2.4000E-04

          OUT:                                     OUT:
          ----                                     ----
             STORAGE =           0.0000               STORAGE =           0.0000
       CONSTANT HEAD =       4.5840E-04         CONSTANT HEAD =       2.4000E-04
               WELLS =           0.0000                 WELLS =           0.0000

           TOTAL OUT =       4.5840E-04             TOTAL OUT =       2.4000E-04

            IN - OUT =           0.0000              IN - OUT =      -1.4552E-11

 PERCENT DISCREPANCY =           0.00     PERCENT DISCREPANCY =           0.00






         TIME SUMMARY AT END OF TIME STEP    1 IN STRESS PERIOD  131
                    SECONDS     MINUTES      HOURS       DAYS        YEARS
                    -----------------------------------------------------------
   TIME STEP LENGTH  1259.7      20.995     0.34992     1.45800E-02 3.99179E-05
 STRESS PERIOD TIME  1259.7      20.995     0.34992     1.45800E-02 3.99179E-05
         TOTAL TIME 1.65022E+05  2750.4      45.840      1.9100     5.22924E-03
1
1
                            STRESS PERIOD NO.  132, LENGTH =  0.1458000E-01
                            -----------------------------------------------

                              NUMBER OF TIME STEPS =     1

                               MULTIPLIER FOR DELT =     1.000

                            INITIAL TIME STEP SIZE =  0.1458000E-01

 WELL NO.  LAYER   ROW   COL   STRESS RATE         
 --------------------------------------------------
      1      1      1      1      0.2400E-03

      1 WELL 
 
 SOLVING FOR HEAD 

 OUTPUT CONTROL FOR STRESS PERIOD  132   TIME STEP    1
    SAVE HEAD FOR ALL LAYERS
    SAVE BUDGET
 UBDSV1 SAVING "         STORAGE" ON UNIT  31 AT TIME STEP  1, STRESS PERIOD 132
 UBDSV2 SAVING "   CONSTANT HEAD" ON UNIT  31 AT TIME STEP  1, STRESS PERIOD 132
 UBDSV1 SAVING "FLOW RIGHT FACE " ON UNIT  31 AT TIME STEP  1, STRESS PERIOD 132
 UBDSV4 SAVING "           WELLS" ON UNIT  31 AT TIME STEP  1, STRESS PERIOD 132

 SAVING SATURATED THICKNESS AND FLOW TERMS ON UNIT  333 FOR MT3DMS
 BY THE LINK-MT3DMS PACKAGE V7 AT TIME STEP    1, STRESS PERIOD  132


 HEAD WILL BE SAVED ON UNIT   30 AT END OF TIME STEP    1, STRESS PERIOD  132
1
  VOLUMETRIC BUDGET FOR ENTIRE MODEL AT END OF TIME STEP    1, STRESS PERIOD 132
  ------------------------------------------------------------------------------

     CUMULATIVE VOLUMES      L**3       RATES FOR THIS TIME STEP      L**3/T
     ------------------                 ------------------------

           IN:                                      IN:
           ---                                      ---
             STORAGE =           0.0000               STORAGE =           0.0000
       CONSTANT HEAD =           0.0000         CONSTANT HEAD =           0.0000
               WELLS =       4.6189E-04                 WELLS =       2.4000E-04

            TOTAL IN =       4.6189E-04              TOTAL IN =       2.4000E-04

          OUT:                                     OUT:
          ----                                     ----
             STORAGE =           0.0000               STORAGE =           0.0000
       CONSTANT HEAD =       4.6189E-04         CONSTANT HEAD =       2.4000E-04
               WELLS =           0.0000                 WELLS =           0.0000

           TOTAL OUT =       4.6189E-04             TOTAL OUT =       2.4000E-04

            IN - OUT =           0.0000              IN - OUT =      -1.4552E-11

 PERCENT DISCREPANCY =           0.00     PERCENT DISCREPANCY =           0.00






         TIME SUMMARY AT END OF TIME STEP    1 IN STRESS PERIOD  132
                    SECONDS     MINUTES      HOURS       DAYS        YEARS
                    -----------------------------------------------------------
   TIME STEP LENGTH  1259.7      20.995     0.34992     1.45800E-02 3.99179E-05
 STRESS PERIOD TIME  1259.7      20.995     0.34992     1.45800E-02 3.99179E-05
         TOTAL TIME 1.66282E+05  2771.4      46.189      1.9246     5.26916E-03
1
1
                            STRESS PERIOD NO.  133, LENGTH =  0.1458000E-01
                            -----------------------------------------------

                              NUMBER OF TIME STEPS =     1

                               MULTIPLIER FOR DELT =     1.000

                            INITIAL TIME STEP SIZE =  0.1458000E-01

 WELL NO.  LAYER   ROW   COL   STRESS RATE         
 --------------------------------------------------
      1      1      1      1      0.2400E-03

      1 WELL 
 
 SOLVING FOR HEAD 

 OUTPUT CONTROL FOR STRESS PERIOD  133   TIME STEP    1
    SAVE HEAD FOR ALL LAYERS
    SAVE BUDGET
 UBDSV1 SAVING "         STORAGE" ON UNIT  31 AT TIME STEP  1, STRESS PERIOD 133
 UBDSV2 SAVING "   CONSTANT HEAD" ON UNIT  31 AT TIME STEP  1, STRESS PERIOD 133
 UBDSV1 SAVING "FLOW RIGHT FACE " ON UNIT  31 AT TIME STEP  1, STRESS PERIOD 133
 UBDSV4 SAVING "           WELLS" ON UNIT  31 AT TIME STEP  1, STRESS PERIOD 133

 SAVING SATURATED THICKNESS AND FLOW TERMS ON UNIT  333 FOR MT3DMS
 BY THE LINK-MT3DMS PACKAGE V7 AT TIME STEP    1, STRESS PERIOD  133


 HEAD WILL BE SAVED ON UNIT   30 AT END OF TIME STEP    1, STRESS PERIOD  133
1
  VOLUMETRIC BUDGET FOR ENTIRE MODEL AT END OF TIME STEP    1, STRESS PERIOD 133
  ------------------------------------------------------------------------------

     CUMULATIVE VOLUMES      L**3       RATES FOR THIS TIME STEP      L**3/T
     ------------------                 ------------------------

           IN:                                      IN:
           ---                                      ---
             STORAGE =           0.0000               STORAGE =           0.0000
       CONSTANT HEAD =           0.0000         CONSTANT HEAD =           0.0000
               WELLS =       4.6539E-04                 WELLS =       2.4000E-04

            TOTAL IN =       4.6539E-04              TOTAL IN =       2.4000E-04

          OUT:                                     OUT:
          ----                                     ----
             STORAGE =           0.0000               STORAGE =           0.0000
       CONSTANT HEAD =       4.6539E-04         CONSTANT HEAD =       2.4000E-04
               WELLS =           0.0000                 WELLS =           0.0000

           TOTAL OUT =       4.6539E-04             TOTAL OUT =       2.4000E-04

            IN - OUT =           0.0000              IN - OUT =      -1.4552E-11

 PERCENT DISCREPANCY =           0.00     PERCENT DISCREPANCY =           0.00






         TIME SUMMARY AT END OF TIME STEP    1 IN STRESS PERIOD  133
                    SECONDS     MINUTES      HOURS       DAYS        YEARS
                    -----------------------------------------------------------
   TIME STEP LENGTH  1259.7      20.995     0.34992     1.45800E-02 3.99179E-05
 STRESS PERIOD TIME  1259.7      20.995     0.34992     1.45800E-02 3.99179E-05
         TOTAL TIME 1.67542E+05  2792.4      46.539      1.9391     5.30908E-03
1
1
                            STRESS PERIOD NO.  134, LENGTH =  0.1458000E-01
                            -----------------------------------------------

                              NUMBER OF TIME STEPS =     1

                               MULTIPLIER FOR DELT =     1.000

                            INITIAL TIME STEP SIZE =  0.1458000E-01

 WELL NO.  LAYER   ROW   COL   STRESS RATE         
 --------------------------------------------------
      1      1      1      1      0.2400E-03

      1 WELL 
 
 SOLVING FOR HEAD 

 OUTPUT CONTROL FOR STRESS PERIOD  134   TIME STEP    1
    SAVE HEAD FOR ALL LAYERS
    SAVE BUDGET
 UBDSV1 SAVING "         STORAGE" ON UNIT  31 AT TIME STEP  1, STRESS PERIOD 134
 UBDSV2 SAVING "   CONSTANT HEAD" ON UNIT  31 AT TIME STEP  1, STRESS PERIOD 134
 UBDSV1 SAVING "FLOW RIGHT FACE " ON UNIT  31 AT TIME STEP  1, STRESS PERIOD 134
 UBDSV4 SAVING "           WELLS" ON UNIT  31 AT TIME STEP  1, STRESS PERIOD 134

 SAVING SATURATED THICKNESS AND FLOW TERMS ON UNIT  333 FOR MT3DMS
 BY THE LINK-MT3DMS PACKAGE V7 AT TIME STEP    1, STRESS PERIOD  134


 HEAD WILL BE SAVED ON UNIT   30 AT END OF TIME STEP    1, STRESS PERIOD  134
1
  VOLUMETRIC BUDGET FOR ENTIRE MODEL AT END OF TIME STEP    1, STRESS PERIOD 134
  ------------------------------------------------------------------------------

     CUMULATIVE VOLUMES      L**3       RATES FOR THIS TIME STEP      L**3/T
     ------------------                 ------------------------

           IN:                                      IN:
           ---                                      ---
             STORAGE =           0.0000               STORAGE =           0.0000
       CONSTANT HEAD =           0.0000         CONSTANT HEAD =           0.0000
               WELLS =       4.6889E-04                 WELLS =       2.4000E-04

            TOTAL IN =       4.6889E-04              TOTAL IN =       2.4000E-04

          OUT:                                     OUT:
          ----                                     ----
             STORAGE =           0.0000               STORAGE =           0.0000
       CONSTANT HEAD =       4.6889E-04         CONSTANT HEAD =       2.4000E-04
               WELLS =           0.0000                 WELLS =           0.0000

           TOTAL OUT =       4.6889E-04             TOTAL OUT =       2.4000E-04

            IN - OUT =           0.0000              IN - OUT =      -1.4552E-11

 PERCENT DISCREPANCY =           0.00     PERCENT DISCREPANCY =           0.00






         TIME SUMMARY AT END OF TIME STEP    1 IN STRESS PERIOD  134
                    SECONDS     MINUTES      HOURS       DAYS        YEARS
                    -----------------------------------------------------------
   TIME STEP LENGTH  1259.7      20.995     0.34992     1.45800E-02 3.99179E-05
 STRESS PERIOD TIME  1259.7      20.995     0.34992     1.45800E-02 3.99179E-05
         TOTAL TIME 1.68802E+05  2813.4      46.889      1.9537     5.34900E-03
1
1
                            STRESS PERIOD NO.  135, LENGTH =  0.1458000E-01
                            -----------------------------------------------

                              NUMBER OF TIME STEPS =     1

                               MULTIPLIER FOR DELT =     1.000

                            INITIAL TIME STEP SIZE =  0.1458000E-01

 WELL NO.  LAYER   ROW   COL   STRESS RATE         
 --------------------------------------------------
      1      1      1      1      0.2400E-03

      1 WELL 
 
 SOLVING FOR HEAD 

 OUTPUT CONTROL FOR STRESS PERIOD  135   TIME STEP    1
    SAVE HEAD FOR ALL LAYERS
    SAVE BUDGET
 UBDSV1 SAVING "         STORAGE" ON UNIT  31 AT TIME STEP  1, STRESS PERIOD 135
 UBDSV2 SAVING "   CONSTANT HEAD" ON UNIT  31 AT TIME STEP  1, STRESS PERIOD 135
 UBDSV1 SAVING "FLOW RIGHT FACE " ON UNIT  31 AT TIME STEP  1, STRESS PERIOD 135
 UBDSV4 SAVING "           WELLS" ON UNIT  31 AT TIME STEP  1, STRESS PERIOD 135

 SAVING SATURATED THICKNESS AND FLOW TERMS ON UNIT  333 FOR MT3DMS
 BY THE LINK-MT3DMS PACKAGE V7 AT TIME STEP    1, STRESS PERIOD  135


 HEAD WILL BE SAVED ON UNIT   30 AT END OF TIME STEP    1, STRESS PERIOD  135
1
  VOLUMETRIC BUDGET FOR ENTIRE MODEL AT END OF TIME STEP    1, STRESS PERIOD 135
  ------------------------------------------------------------------------------

     CUMULATIVE VOLUMES      L**3       RATES FOR THIS TIME STEP      L**3/T
     ------------------                 ------------------------

           IN:                                      IN:
           ---                                      ---
             STORAGE =           0.0000               STORAGE =           0.0000
       CONSTANT HEAD =           0.0000         CONSTANT HEAD =           0.0000
               WELLS =       4.7239E-04                 WELLS =       2.4000E-04

            TOTAL IN =       4.7239E-04              TOTAL IN =       2.4000E-04

          OUT:                                     OUT:
          ----                                     ----
             STORAGE =           0.0000               STORAGE =           0.0000
       CONSTANT HEAD =       4.7239E-04         CONSTANT HEAD =       2.4000E-04
               WELLS =           0.0000                 WELLS =           0.0000

           TOTAL OUT =       4.7239E-04             TOTAL OUT =       2.4000E-04

            IN - OUT =           0.0000              IN - OUT =      -1.4552E-11

 PERCENT DISCREPANCY =           0.00     PERCENT DISCREPANCY =           0.00






         TIME SUMMARY AT END OF TIME STEP    1 IN STRESS PERIOD  135
                    SECONDS     MINUTES      HOURS       DAYS        YEARS
                    -----------------------------------------------------------
   TIME STEP LENGTH  1259.7      20.995     0.34992     1.45800E-02 3.99179E-05
 STRESS PERIOD TIME  1259.7      20.995     0.34992     1.45800E-02 3.99179E-05
         TOTAL TIME 1.70061E+05  2834.4      47.239      1.9683     5.38892E-03
1
1
                            STRESS PERIOD NO.  136, LENGTH =  0.1458000E-01
                            -----------------------------------------------

                              NUMBER OF TIME STEPS =     1

                               MULTIPLIER FOR DELT =     1.000

                            INITIAL TIME STEP SIZE =  0.1458000E-01

 WELL NO.  LAYER   ROW   COL   STRESS RATE         
 --------------------------------------------------
      1      1      1      1      0.2400E-03

      1 WELL 
 
 SOLVING FOR HEAD 

 OUTPUT CONTROL FOR STRESS PERIOD  136   TIME STEP    1
    SAVE HEAD FOR ALL LAYERS
    SAVE BUDGET
 UBDSV1 SAVING "         STORAGE" ON UNIT  31 AT TIME STEP  1, STRESS PERIOD 136
 UBDSV2 SAVING "   CONSTANT HEAD" ON UNIT  31 AT TIME STEP  1, STRESS PERIOD 136
 UBDSV1 SAVING "FLOW RIGHT FACE " ON UNIT  31 AT TIME STEP  1, STRESS PERIOD 136
 UBDSV4 SAVING "           WELLS" ON UNIT  31 AT TIME STEP  1, STRESS PERIOD 136

 SAVING SATURATED THICKNESS AND FLOW TERMS ON UNIT  333 FOR MT3DMS
 BY THE LINK-MT3DMS PACKAGE V7 AT TIME STEP    1, STRESS PERIOD  136


 HEAD WILL BE SAVED ON UNIT   30 AT END OF TIME STEP    1, STRESS PERIOD  136
1
  VOLUMETRIC BUDGET FOR ENTIRE MODEL AT END OF TIME STEP    1, STRESS PERIOD 136
  ------------------------------------------------------------------------------

     CUMULATIVE VOLUMES      L**3       RATES FOR THIS TIME STEP      L**3/T
     ------------------                 ------------------------

           IN:                                      IN:
           ---                                      ---
             STORAGE =           0.0000               STORAGE =           0.0000
       CONSTANT HEAD =           0.0000         CONSTANT HEAD =           0.0000
               WELLS =       4.7589E-04                 WELLS =       2.4000E-04

            TOTAL IN =       4.7589E-04              TOTAL IN =       2.4000E-04

          OUT:                                     OUT:
          ----                                     ----
             STORAGE =           0.0000               STORAGE =           0.0000
       CONSTANT HEAD =       4.7589E-04         CONSTANT HEAD =       2.4000E-04
               WELLS =           0.0000                 WELLS =           0.0000

           TOTAL OUT =       4.7589E-04             TOTAL OUT =       2.4000E-04

            IN - OUT =           0.0000              IN - OUT =      -1.4552E-11

 PERCENT DISCREPANCY =           0.00     PERCENT DISCREPANCY =           0.00






         TIME SUMMARY AT END OF TIME STEP    1 IN STRESS PERIOD  136
                    SECONDS     MINUTES      HOURS       DAYS        YEARS
                    -----------------------------------------------------------
   TIME STEP LENGTH  1259.7      20.995     0.34992     1.45800E-02 3.99179E-05
 STRESS PERIOD TIME  1259.7      20.995     0.34992     1.45800E-02 3.99179E-05
         TOTAL TIME 1.71321E+05  2855.3      47.589      1.9829     5.42883E-03
1
1
                            STRESS PERIOD NO.  137, LENGTH =  0.1458000E-01
                            -----------------------------------------------

                              NUMBER OF TIME STEPS =     1

                               MULTIPLIER FOR DELT =     1.000

                            INITIAL TIME STEP SIZE =  0.1458000E-01

 WELL NO.  LAYER   ROW   COL   STRESS RATE         
 --------------------------------------------------
      1      1      1      1      0.2400E-03

      1 WELL 
 
 SOLVING FOR HEAD 

 OUTPUT CONTROL FOR STRESS PERIOD  137   TIME STEP    1
    SAVE HEAD FOR ALL LAYERS
    SAVE BUDGET
 UBDSV1 SAVING "         STORAGE" ON UNIT  31 AT TIME STEP  1, STRESS PERIOD 137
 UBDSV2 SAVING "   CONSTANT HEAD" ON UNIT  31 AT TIME STEP  1, STRESS PERIOD 137
 UBDSV1 SAVING "FLOW RIGHT FACE " ON UNIT  31 AT TIME STEP  1, STRESS PERIOD 137
 UBDSV4 SAVING "           WELLS" ON UNIT  31 AT TIME STEP  1, STRESS PERIOD 137

 SAVING SATURATED THICKNESS AND FLOW TERMS ON UNIT  333 FOR MT3DMS
 BY THE LINK-MT3DMS PACKAGE V7 AT TIME STEP    1, STRESS PERIOD  137


 HEAD WILL BE SAVED ON UNIT   30 AT END OF TIME STEP    1, STRESS PERIOD  137
1
  VOLUMETRIC BUDGET FOR ENTIRE MODEL AT END OF TIME STEP    1, STRESS PERIOD 137
  ------------------------------------------------------------------------------

     CUMULATIVE VOLUMES      L**3       RATES FOR THIS TIME STEP      L**3/T
     ------------------                 ------------------------

           IN:                                      IN:
           ---                                      ---
             STORAGE =           0.0000               STORAGE =           0.0000
       CONSTANT HEAD =           0.0000         CONSTANT HEAD =           0.0000
               WELLS =       4.7939E-04                 WELLS =       2.4000E-04

            TOTAL IN =       4.7939E-04              TOTAL IN =       2.4000E-04

          OUT:                                     OUT:
          ----                                     ----
             STORAGE =           0.0000               STORAGE =           0.0000
       CONSTANT HEAD =       4.7939E-04         CONSTANT HEAD =       2.4000E-04
               WELLS =           0.0000                 WELLS =           0.0000

           TOTAL OUT =       4.7939E-04             TOTAL OUT =       2.4000E-04

            IN - OUT =           0.0000              IN - OUT =      -1.4552E-11

 PERCENT DISCREPANCY =           0.00     PERCENT DISCREPANCY =           0.00






         TIME SUMMARY AT END OF TIME STEP    1 IN STRESS PERIOD  137
                    SECONDS     MINUTES      HOURS       DAYS        YEARS
                    -----------------------------------------------------------
   TIME STEP LENGTH  1259.7      20.995     0.34992     1.45800E-02 3.99179E-05
 STRESS PERIOD TIME  1259.7      20.995     0.34992     1.45800E-02 3.99179E-05
         TOTAL TIME 1.72581E+05  2876.3      47.939      1.9975     5.46875E-03
1
1
                            STRESS PERIOD NO.  138, LENGTH =  0.1458000E-01
                            -----------------------------------------------

                              NUMBER OF TIME STEPS =     1

                               MULTIPLIER FOR DELT =     1.000

                            INITIAL TIME STEP SIZE =  0.1458000E-01

 WELL NO.  LAYER   ROW   COL   STRESS RATE         
 --------------------------------------------------
      1      1      1      1      0.2400E-03

      1 WELL 
 
 SOLVING FOR HEAD 

 OUTPUT CONTROL FOR STRESS PERIOD  138   TIME STEP    1
    SAVE HEAD FOR ALL LAYERS
    SAVE BUDGET
 UBDSV1 SAVING "         STORAGE" ON UNIT  31 AT TIME STEP  1, STRESS PERIOD 138
 UBDSV2 SAVING "   CONSTANT HEAD" ON UNIT  31 AT TIME STEP  1, STRESS PERIOD 138
 UBDSV1 SAVING "FLOW RIGHT FACE " ON UNIT  31 AT TIME STEP  1, STRESS PERIOD 138
 UBDSV4 SAVING "           WELLS" ON UNIT  31 AT TIME STEP  1, STRESS PERIOD 138

 SAVING SATURATED THICKNESS AND FLOW TERMS ON UNIT  333 FOR MT3DMS
 BY THE LINK-MT3DMS PACKAGE V7 AT TIME STEP    1, STRESS PERIOD  138


 HEAD WILL BE SAVED ON UNIT   30 AT END OF TIME STEP    1, STRESS PERIOD  138
1
  VOLUMETRIC BUDGET FOR ENTIRE MODEL AT END OF TIME STEP    1, STRESS PERIOD 138
  ------------------------------------------------------------------------------

     CUMULATIVE VOLUMES      L**3       RATES FOR THIS TIME STEP      L**3/T
     ------------------                 ------------------------

           IN:                                      IN:
           ---                                      ---
             STORAGE =           0.0000               STORAGE =           0.0000
       CONSTANT HEAD =           0.0000         CONSTANT HEAD =           0.0000
               WELLS =       4.8289E-04                 WELLS =       2.4000E-04

            TOTAL IN =       4.8289E-04              TOTAL IN =       2.4000E-04

          OUT:                                     OUT:
          ----                                     ----
             STORAGE =           0.0000               STORAGE =           0.0000
       CONSTANT HEAD =       4.8289E-04         CONSTANT HEAD =       2.4000E-04
               WELLS =           0.0000                 WELLS =           0.0000

           TOTAL OUT =       4.8289E-04             TOTAL OUT =       2.4000E-04

            IN - OUT =           0.0000              IN - OUT =      -1.4552E-11

 PERCENT DISCREPANCY =           0.00     PERCENT DISCREPANCY =           0.00






         TIME SUMMARY AT END OF TIME STEP    1 IN STRESS PERIOD  138
                    SECONDS     MINUTES      HOURS       DAYS        YEARS
                    -----------------------------------------------------------
   TIME STEP LENGTH  1259.7      20.995     0.34992     1.45800E-02 3.99179E-05
 STRESS PERIOD TIME  1259.7      20.995     0.34992     1.45800E-02 3.99179E-05
         TOTAL TIME 1.73840E+05  2897.3      48.289      2.0120     5.50867E-03
1
1
                            STRESS PERIOD NO.  139, LENGTH =  0.1458000E-01
                            -----------------------------------------------

                              NUMBER OF TIME STEPS =     1

                               MULTIPLIER FOR DELT =     1.000

                            INITIAL TIME STEP SIZE =  0.1458000E-01

 WELL NO.  LAYER   ROW   COL   STRESS RATE         
 --------------------------------------------------
      1      1      1      1      0.2400E-03

      1 WELL 
 
 SOLVING FOR HEAD 

 OUTPUT CONTROL FOR STRESS PERIOD  139   TIME STEP    1
    SAVE HEAD FOR ALL LAYERS
    SAVE BUDGET
 UBDSV1 SAVING "         STORAGE" ON UNIT  31 AT TIME STEP  1, STRESS PERIOD 139
 UBDSV2 SAVING "   CONSTANT HEAD" ON UNIT  31 AT TIME STEP  1, STRESS PERIOD 139
 UBDSV1 SAVING "FLOW RIGHT FACE " ON UNIT  31 AT TIME STEP  1, STRESS PERIOD 139
 UBDSV4 SAVING "           WELLS" ON UNIT  31 AT TIME STEP  1, STRESS PERIOD 139

 SAVING SATURATED THICKNESS AND FLOW TERMS ON UNIT  333 FOR MT3DMS
 BY THE LINK-MT3DMS PACKAGE V7 AT TIME STEP    1, STRESS PERIOD  139


 HEAD WILL BE SAVED ON UNIT   30 AT END OF TIME STEP    1, STRESS PERIOD  139
1
  VOLUMETRIC BUDGET FOR ENTIRE MODEL AT END OF TIME STEP    1, STRESS PERIOD 139
  ------------------------------------------------------------------------------

     CUMULATIVE VOLUMES      L**3       RATES FOR THIS TIME STEP      L**3/T
     ------------------                 ------------------------

           IN:                                      IN:
           ---                                      ---
             STORAGE =           0.0000               STORAGE =           0.0000
       CONSTANT HEAD =           0.0000         CONSTANT HEAD =           0.0000
               WELLS =       4.8639E-04                 WELLS =       2.4000E-04

            TOTAL IN =       4.8639E-04              TOTAL IN =       2.4000E-04

          OUT:                                     OUT:
          ----                                     ----
             STORAGE =           0.0000               STORAGE =           0.0000
       CONSTANT HEAD =       4.8639E-04         CONSTANT HEAD =       2.4000E-04
               WELLS =           0.0000                 WELLS =           0.0000

           TOTAL OUT =       4.8639E-04             TOTAL OUT =       2.4000E-04

            IN - OUT =           0.0000              IN - OUT =      -1.4552E-11

 PERCENT DISCREPANCY =           0.00     PERCENT DISCREPANCY =           0.00






         TIME SUMMARY AT END OF TIME STEP    1 IN STRESS PERIOD  139
                    SECONDS     MINUTES      HOURS       DAYS        YEARS
                    -----------------------------------------------------------
   TIME STEP LENGTH  1259.7      20.995     0.34992     1.45800E-02 3.99179E-05
 STRESS PERIOD TIME  1259.7      20.995     0.34992     1.45800E-02 3.99179E-05
         TOTAL TIME 1.75100E+05  2918.3      48.639      2.0266     5.54859E-03
1
1
                            STRESS PERIOD NO.  140, LENGTH =  0.1458000E-01
                            -----------------------------------------------

                              NUMBER OF TIME STEPS =     1

                               MULTIPLIER FOR DELT =     1.000

                            INITIAL TIME STEP SIZE =  0.1458000E-01

 WELL NO.  LAYER   ROW   COL   STRESS RATE         
 --------------------------------------------------
      1      1      1      1      0.2400E-03

      1 WELL 
 
 SOLVING FOR HEAD 

 OUTPUT CONTROL FOR STRESS PERIOD  140   TIME STEP    1
    SAVE HEAD FOR ALL LAYERS
    SAVE BUDGET
 UBDSV1 SAVING "         STORAGE" ON UNIT  31 AT TIME STEP  1, STRESS PERIOD 140
 UBDSV2 SAVING "   CONSTANT HEAD" ON UNIT  31 AT TIME STEP  1, STRESS PERIOD 140
 UBDSV1 SAVING "FLOW RIGHT FACE " ON UNIT  31 AT TIME STEP  1, STRESS PERIOD 140
 UBDSV4 SAVING "           WELLS" ON UNIT  31 AT TIME STEP  1, STRESS PERIOD 140

 SAVING SATURATED THICKNESS AND FLOW TERMS ON UNIT  333 FOR MT3DMS
 BY THE LINK-MT3DMS PACKAGE V7 AT TIME STEP    1, STRESS PERIOD  140


 HEAD WILL BE SAVED ON UNIT   30 AT END OF TIME STEP    1, STRESS PERIOD  140
1
  VOLUMETRIC BUDGET FOR ENTIRE MODEL AT END OF TIME STEP    1, STRESS PERIOD 140
  ------------------------------------------------------------------------------

     CUMULATIVE VOLUMES      L**3       RATES FOR THIS TIME STEP      L**3/T
     ------------------                 ------------------------

           IN:                                      IN:
           ---                                      ---
             STORAGE =           0.0000               STORAGE =           0.0000
       CONSTANT HEAD =           0.0000         CONSTANT HEAD =           0.0000
               WELLS =       4.8989E-04                 WELLS =       2.4000E-04

            TOTAL IN =       4.8989E-04              TOTAL IN =       2.4000E-04

          OUT:                                     OUT:
          ----                                     ----
             STORAGE =           0.0000               STORAGE =           0.0000
       CONSTANT HEAD =       4.8989E-04         CONSTANT HEAD =       2.4000E-04
               WELLS =           0.0000                 WELLS =           0.0000

           TOTAL OUT =       4.8989E-04             TOTAL OUT =       2.4000E-04

            IN - OUT =           0.0000              IN - OUT =      -1.4552E-11

 PERCENT DISCREPANCY =           0.00     PERCENT DISCREPANCY =           0.00






         TIME SUMMARY AT END OF TIME STEP    1 IN STRESS PERIOD  140
                    SECONDS     MINUTES      HOURS       DAYS        YEARS
                    -----------------------------------------------------------
   TIME STEP LENGTH  1259.7      20.995     0.34992     1.45800E-02 3.99179E-05
 STRESS PERIOD TIME  1259.7      20.995     0.34992     1.45800E-02 3.99179E-05
         TOTAL TIME 1.76360E+05  2939.3      48.989      2.0412     5.58850E-03
1
1
                            STRESS PERIOD NO.  141, LENGTH =  0.1458000E-01
                            -----------------------------------------------

                              NUMBER OF TIME STEPS =     1

                               MULTIPLIER FOR DELT =     1.000

                            INITIAL TIME STEP SIZE =  0.1458000E-01

 WELL NO.  LAYER   ROW   COL   STRESS RATE         
 --------------------------------------------------
      1      1      1      1      0.2400E-03

      1 WELL 
 
 SOLVING FOR HEAD 

 OUTPUT CONTROL FOR STRESS PERIOD  141   TIME STEP    1
    SAVE HEAD FOR ALL LAYERS
    SAVE BUDGET
 UBDSV1 SAVING "         STORAGE" ON UNIT  31 AT TIME STEP  1, STRESS PERIOD 141
 UBDSV2 SAVING "   CONSTANT HEAD" ON UNIT  31 AT TIME STEP  1, STRESS PERIOD 141
 UBDSV1 SAVING "FLOW RIGHT FACE " ON UNIT  31 AT TIME STEP  1, STRESS PERIOD 141
 UBDSV4 SAVING "           WELLS" ON UNIT  31 AT TIME STEP  1, STRESS PERIOD 141

 SAVING SATURATED THICKNESS AND FLOW TERMS ON UNIT  333 FOR MT3DMS
 BY THE LINK-MT3DMS PACKAGE V7 AT TIME STEP    1, STRESS PERIOD  141


 HEAD WILL BE SAVED ON UNIT   30 AT END OF TIME STEP    1, STRESS PERIOD  141
1
  VOLUMETRIC BUDGET FOR ENTIRE MODEL AT END OF TIME STEP    1, STRESS PERIOD 141
  ------------------------------------------------------------------------------

     CUMULATIVE VOLUMES      L**3       RATES FOR THIS TIME STEP      L**3/T
     ------------------                 ------------------------

           IN:                                      IN:
           ---                                      ---
             STORAGE =           0.0000               STORAGE =           0.0000
       CONSTANT HEAD =           0.0000         CONSTANT HEAD =           0.0000
               WELLS =       4.9339E-04                 WELLS =       2.4000E-04

            TOTAL IN =       4.9339E-04              TOTAL IN =       2.4000E-04

          OUT:                                     OUT:
          ----                                     ----
             STORAGE =           0.0000               STORAGE =           0.0000
       CONSTANT HEAD =       4.9339E-04         CONSTANT HEAD =       2.4000E-04
               WELLS =           0.0000                 WELLS =           0.0000

           TOTAL OUT =       4.9339E-04             TOTAL OUT =       2.4000E-04

            IN - OUT =           0.0000              IN - OUT =      -1.4552E-11

 PERCENT DISCREPANCY =           0.00     PERCENT DISCREPANCY =           0.00






         TIME SUMMARY AT END OF TIME STEP    1 IN STRESS PERIOD  141
                    SECONDS     MINUTES      HOURS       DAYS        YEARS
                    -----------------------------------------------------------
   TIME STEP LENGTH  1259.7      20.995     0.34992     1.45800E-02 3.99179E-05
 STRESS PERIOD TIME  1259.7      20.995     0.34992     1.45800E-02 3.99179E-05
         TOTAL TIME 1.77620E+05  2960.3      49.339      2.0558     5.62842E-03
1
1
                            STRESS PERIOD NO.  142, LENGTH =  0.1458000E-01
                            -----------------------------------------------

                              NUMBER OF TIME STEPS =     1

                               MULTIPLIER FOR DELT =     1.000

                            INITIAL TIME STEP SIZE =  0.1458000E-01

 WELL NO.  LAYER   ROW   COL   STRESS RATE         
 --------------------------------------------------
      1      1      1      1      0.2400E-03

      1 WELL 
 
 SOLVING FOR HEAD 

 OUTPUT CONTROL FOR STRESS PERIOD  142   TIME STEP    1
    SAVE HEAD FOR ALL LAYERS
    SAVE BUDGET
 UBDSV1 SAVING "         STORAGE" ON UNIT  31 AT TIME STEP  1, STRESS PERIOD 142
 UBDSV2 SAVING "   CONSTANT HEAD" ON UNIT  31 AT TIME STEP  1, STRESS PERIOD 142
 UBDSV1 SAVING "FLOW RIGHT FACE " ON UNIT  31 AT TIME STEP  1, STRESS PERIOD 142
 UBDSV4 SAVING "           WELLS" ON UNIT  31 AT TIME STEP  1, STRESS PERIOD 142

 SAVING SATURATED THICKNESS AND FLOW TERMS ON UNIT  333 FOR MT3DMS
 BY THE LINK-MT3DMS PACKAGE V7 AT TIME STEP    1, STRESS PERIOD  142


 HEAD WILL BE SAVED ON UNIT   30 AT END OF TIME STEP    1, STRESS PERIOD  142
1
  VOLUMETRIC BUDGET FOR ENTIRE MODEL AT END OF TIME STEP    1, STRESS PERIOD 142
  ------------------------------------------------------------------------------

     CUMULATIVE VOLUMES      L**3       RATES FOR THIS TIME STEP      L**3/T
     ------------------                 ------------------------

           IN:                                      IN:
           ---                                      ---
             STORAGE =           0.0000               STORAGE =           0.0000
       CONSTANT HEAD =           0.0000         CONSTANT HEAD =           0.0000
               WELLS =       4.9689E-04                 WELLS =       2.4000E-04

            TOTAL IN =       4.9689E-04              TOTAL IN =       2.4000E-04

          OUT:                                     OUT:
          ----                                     ----
             STORAGE =           0.0000               STORAGE =           0.0000
       CONSTANT HEAD =       4.9689E-04         CONSTANT HEAD =       2.4000E-04
               WELLS =           0.0000                 WELLS =           0.0000

           TOTAL OUT =       4.9689E-04             TOTAL OUT =       2.4000E-04

            IN - OUT =           0.0000              IN - OUT =      -1.4552E-11

 PERCENT DISCREPANCY =           0.00     PERCENT DISCREPANCY =           0.00






         TIME SUMMARY AT END OF TIME STEP    1 IN STRESS PERIOD  142
                    SECONDS     MINUTES      HOURS       DAYS        YEARS
                    -----------------------------------------------------------
   TIME STEP LENGTH  1259.7      20.995     0.34992     1.45800E-02 3.99179E-05
 STRESS PERIOD TIME  1259.7      20.995     0.34992     1.45800E-02 3.99179E-05
         TOTAL TIME 1.78879E+05  2981.3      49.689      2.0704     5.66834E-03
1
1
                            STRESS PERIOD NO.  143, LENGTH =  0.1458000E-01
                            -----------------------------------------------

                              NUMBER OF TIME STEPS =     1

                               MULTIPLIER FOR DELT =     1.000

                            INITIAL TIME STEP SIZE =  0.1458000E-01

 WELL NO.  LAYER   ROW   COL   STRESS RATE         
 --------------------------------------------------
      1      1      1      1      0.2400E-03

      1 WELL 
 
 SOLVING FOR HEAD 

 OUTPUT CONTROL FOR STRESS PERIOD  143   TIME STEP    1
    SAVE HEAD FOR ALL LAYERS
    SAVE BUDGET
 UBDSV1 SAVING "         STORAGE" ON UNIT  31 AT TIME STEP  1, STRESS PERIOD 143
 UBDSV2 SAVING "   CONSTANT HEAD" ON UNIT  31 AT TIME STEP  1, STRESS PERIOD 143
 UBDSV1 SAVING "FLOW RIGHT FACE " ON UNIT  31 AT TIME STEP  1, STRESS PERIOD 143
 UBDSV4 SAVING "           WELLS" ON UNIT  31 AT TIME STEP  1, STRESS PERIOD 143

 SAVING SATURATED THICKNESS AND FLOW TERMS ON UNIT  333 FOR MT3DMS
 BY THE LINK-MT3DMS PACKAGE V7 AT TIME STEP    1, STRESS PERIOD  143


 HEAD WILL BE SAVED ON UNIT   30 AT END OF TIME STEP    1, STRESS PERIOD  143
1
  VOLUMETRIC BUDGET FOR ENTIRE MODEL AT END OF TIME STEP    1, STRESS PERIOD 143
  ------------------------------------------------------------------------------

     CUMULATIVE VOLUMES      L**3       RATES FOR THIS TIME STEP      L**3/T
     ------------------                 ------------------------

           IN:                                      IN:
           ---                                      ---
             STORAGE =           0.0000               STORAGE =           0.0000
       CONSTANT HEAD =           0.0000         CONSTANT HEAD =           0.0000
               WELLS =       5.0039E-04                 WELLS =       2.4000E-04

            TOTAL IN =       5.0039E-04              TOTAL IN =       2.4000E-04

          OUT:                                     OUT:
          ----                                     ----
             STORAGE =           0.0000               STORAGE =           0.0000
       CONSTANT HEAD =       5.0039E-04         CONSTANT HEAD =       2.4000E-04
               WELLS =           0.0000                 WELLS =           0.0000

           TOTAL OUT =       5.0039E-04             TOTAL OUT =       2.4000E-04

            IN - OUT =           0.0000              IN - OUT =      -1.4552E-11

 PERCENT DISCREPANCY =           0.00     PERCENT DISCREPANCY =           0.00






         TIME SUMMARY AT END OF TIME STEP    1 IN STRESS PERIOD  143
                    SECONDS     MINUTES      HOURS       DAYS        YEARS
                    -----------------------------------------------------------
   TIME STEP LENGTH  1259.7      20.995     0.34992     1.45800E-02 3.99179E-05
 STRESS PERIOD TIME  1259.7      20.995     0.34992     1.45800E-02 3.99179E-05
         TOTAL TIME 1.80139E+05  3002.3      50.039      2.0849     5.70826E-03
1
1
                            STRESS PERIOD NO.  144, LENGTH =  0.1458000E-01
                            -----------------------------------------------

                              NUMBER OF TIME STEPS =     1

                               MULTIPLIER FOR DELT =     1.000

                            INITIAL TIME STEP SIZE =  0.1458000E-01

 WELL NO.  LAYER   ROW   COL   STRESS RATE         
 --------------------------------------------------
      1      1      1      1      0.2400E-03

      1 WELL 
 
 SOLVING FOR HEAD 

 OUTPUT CONTROL FOR STRESS PERIOD  144   TIME STEP    1
    SAVE HEAD FOR ALL LAYERS
    SAVE BUDGET
 UBDSV1 SAVING "         STORAGE" ON UNIT  31 AT TIME STEP  1, STRESS PERIOD 144
 UBDSV2 SAVING "   CONSTANT HEAD" ON UNIT  31 AT TIME STEP  1, STRESS PERIOD 144
 UBDSV1 SAVING "FLOW RIGHT FACE " ON UNIT  31 AT TIME STEP  1, STRESS PERIOD 144
 UBDSV4 SAVING "           WELLS" ON UNIT  31 AT TIME STEP  1, STRESS PERIOD 144

 SAVING SATURATED THICKNESS AND FLOW TERMS ON UNIT  333 FOR MT3DMS
 BY THE LINK-MT3DMS PACKAGE V7 AT TIME STEP    1, STRESS PERIOD  144


 HEAD WILL BE SAVED ON UNIT   30 AT END OF TIME STEP    1, STRESS PERIOD  144
1
  VOLUMETRIC BUDGET FOR ENTIRE MODEL AT END OF TIME STEP    1, STRESS PERIOD 144
  ------------------------------------------------------------------------------

     CUMULATIVE VOLUMES      L**3       RATES FOR THIS TIME STEP      L**3/T
     ------------------                 ------------------------

           IN:                                      IN:
           ---                                      ---
             STORAGE =           0.0000               STORAGE =           0.0000
       CONSTANT HEAD =           0.0000         CONSTANT HEAD =           0.0000
               WELLS =       5.0389E-04                 WELLS =       2.4000E-04

            TOTAL IN =       5.0389E-04              TOTAL IN =       2.4000E-04

          OUT:                                     OUT:
          ----                                     ----
             STORAGE =           0.0000               STORAGE =           0.0000
       CONSTANT HEAD =       5.0389E-04         CONSTANT HEAD =       2.4000E-04
               WELLS =           0.0000                 WELLS =           0.0000

           TOTAL OUT =       5.0389E-04             TOTAL OUT =       2.4000E-04

            IN - OUT =           0.0000              IN - OUT =      -1.4552E-11

 PERCENT DISCREPANCY =           0.00     PERCENT DISCREPANCY =           0.00






         TIME SUMMARY AT END OF TIME STEP    1 IN STRESS PERIOD  144
                    SECONDS     MINUTES      HOURS       DAYS        YEARS
                    -----------------------------------------------------------
   TIME STEP LENGTH  1259.7      20.995     0.34992     1.45800E-02 3.99179E-05
 STRESS PERIOD TIME  1259.7      20.995     0.34992     1.45800E-02 3.99179E-05
         TOTAL TIME 1.81399E+05  3023.3      50.389      2.0995     5.74818E-03
1
1
                            STRESS PERIOD NO.  145, LENGTH =  0.1458000E-01
                            -----------------------------------------------

                              NUMBER OF TIME STEPS =     1

                               MULTIPLIER FOR DELT =     1.000

                            INITIAL TIME STEP SIZE =  0.1458000E-01

 WELL NO.  LAYER   ROW   COL   STRESS RATE         
 --------------------------------------------------
      1      1      1      1      0.2400E-03

      1 WELL 
 
 SOLVING FOR HEAD 

 OUTPUT CONTROL FOR STRESS PERIOD  145   TIME STEP    1
    SAVE HEAD FOR ALL LAYERS
    SAVE BUDGET
 UBDSV1 SAVING "         STORAGE" ON UNIT  31 AT TIME STEP  1, STRESS PERIOD 145
 UBDSV2 SAVING "   CONSTANT HEAD" ON UNIT  31 AT TIME STEP  1, STRESS PERIOD 145
 UBDSV1 SAVING "FLOW RIGHT FACE " ON UNIT  31 AT TIME STEP  1, STRESS PERIOD 145
 UBDSV4 SAVING "           WELLS" ON UNIT  31 AT TIME STEP  1, STRESS PERIOD 145

 SAVING SATURATED THICKNESS AND FLOW TERMS ON UNIT  333 FOR MT3DMS
 BY THE LINK-MT3DMS PACKAGE V7 AT TIME STEP    1, STRESS PERIOD  145


 HEAD WILL BE SAVED ON UNIT   30 AT END OF TIME STEP    1, STRESS PERIOD  145
1
  VOLUMETRIC BUDGET FOR ENTIRE MODEL AT END OF TIME STEP    1, STRESS PERIOD 145
  ------------------------------------------------------------------------------

     CUMULATIVE VOLUMES      L**3       RATES FOR THIS TIME STEP      L**3/T
     ------------------                 ------------------------

           IN:                                      IN:
           ---                                      ---
             STORAGE =           0.0000               STORAGE =           0.0000
       CONSTANT HEAD =           0.0000         CONSTANT HEAD =           0.0000
               WELLS =       5.0738E-04                 WELLS =       2.4000E-04

            TOTAL IN =       5.0738E-04              TOTAL IN =       2.4000E-04

          OUT:                                     OUT:
          ----                                     ----
             STORAGE =           0.0000               STORAGE =           0.0000
       CONSTANT HEAD =       5.0738E-04         CONSTANT HEAD =       2.4000E-04
               WELLS =           0.0000                 WELLS =           0.0000

           TOTAL OUT =       5.0738E-04             TOTAL OUT =       2.4000E-04

            IN - OUT =           0.0000              IN - OUT =      -1.4552E-11

 PERCENT DISCREPANCY =           0.00     PERCENT DISCREPANCY =           0.00






         TIME SUMMARY AT END OF TIME STEP    1 IN STRESS PERIOD  145
                    SECONDS     MINUTES      HOURS       DAYS        YEARS
                    -----------------------------------------------------------
   TIME STEP LENGTH  1259.7      20.995     0.34992     1.45800E-02 3.99179E-05
 STRESS PERIOD TIME  1259.7      20.995     0.34992     1.45800E-02 3.99179E-05
         TOTAL TIME 1.82658E+05  3044.3      50.738      2.1141     5.78809E-03
1
1
                            STRESS PERIOD NO.  146, LENGTH =  0.1458000E-01
                            -----------------------------------------------

                              NUMBER OF TIME STEPS =     1

                               MULTIPLIER FOR DELT =     1.000

                            INITIAL TIME STEP SIZE =  0.1458000E-01

 WELL NO.  LAYER   ROW   COL   STRESS RATE         
 --------------------------------------------------
      1      1      1      1      0.2400E-03

      1 WELL 
 
 SOLVING FOR HEAD 

 OUTPUT CONTROL FOR STRESS PERIOD  146   TIME STEP    1
    SAVE HEAD FOR ALL LAYERS
    SAVE BUDGET
 UBDSV1 SAVING "         STORAGE" ON UNIT  31 AT TIME STEP  1, STRESS PERIOD 146
 UBDSV2 SAVING "   CONSTANT HEAD" ON UNIT  31 AT TIME STEP  1, STRESS PERIOD 146
 UBDSV1 SAVING "FLOW RIGHT FACE " ON UNIT  31 AT TIME STEP  1, STRESS PERIOD 146
 UBDSV4 SAVING "           WELLS" ON UNIT  31 AT TIME STEP  1, STRESS PERIOD 146

 SAVING SATURATED THICKNESS AND FLOW TERMS ON UNIT  333 FOR MT3DMS
 BY THE LINK-MT3DMS PACKAGE V7 AT TIME STEP    1, STRESS PERIOD  146


 HEAD WILL BE SAVED ON UNIT   30 AT END OF TIME STEP    1, STRESS PERIOD  146
1
  VOLUMETRIC BUDGET FOR ENTIRE MODEL AT END OF TIME STEP    1, STRESS PERIOD 146
  ------------------------------------------------------------------------------

     CUMULATIVE VOLUMES      L**3       RATES FOR THIS TIME STEP      L**3/T
     ------------------                 ------------------------

           IN:                                      IN:
           ---                                      ---
             STORAGE =           0.0000               STORAGE =           0.0000
       CONSTANT HEAD =           0.0000         CONSTANT HEAD =           0.0000
               WELLS =       5.1088E-04                 WELLS =       2.4000E-04

            TOTAL IN =       5.1088E-04              TOTAL IN =       2.4000E-04

          OUT:                                     OUT:
          ----                                     ----
             STORAGE =           0.0000               STORAGE =           0.0000
       CONSTANT HEAD =       5.1088E-04         CONSTANT HEAD =       2.4000E-04
               WELLS =           0.0000                 WELLS =           0.0000

           TOTAL OUT =       5.1088E-04             TOTAL OUT =       2.4000E-04

            IN - OUT =           0.0000              IN - OUT =      -1.4552E-11

 PERCENT DISCREPANCY =           0.00     PERCENT DISCREPANCY =           0.00






         TIME SUMMARY AT END OF TIME STEP    1 IN STRESS PERIOD  146
                    SECONDS     MINUTES      HOURS       DAYS        YEARS
                    -----------------------------------------------------------
   TIME STEP LENGTH  1259.7      20.995     0.34992     1.45800E-02 3.99179E-05
 STRESS PERIOD TIME  1259.7      20.995     0.34992     1.45800E-02 3.99179E-05
         TOTAL TIME 1.83918E+05  3065.3      51.088      2.1287     5.82801E-03
1
1
                            STRESS PERIOD NO.  147, LENGTH =  0.1458000E-01
                            -----------------------------------------------

                              NUMBER OF TIME STEPS =     1

                               MULTIPLIER FOR DELT =     1.000

                            INITIAL TIME STEP SIZE =  0.1458000E-01

 WELL NO.  LAYER   ROW   COL   STRESS RATE         
 --------------------------------------------------
      1      1      1      1      0.2400E-03

      1 WELL 
 
 SOLVING FOR HEAD 

 OUTPUT CONTROL FOR STRESS PERIOD  147   TIME STEP    1
    SAVE HEAD FOR ALL LAYERS
    SAVE BUDGET
 UBDSV1 SAVING "         STORAGE" ON UNIT  31 AT TIME STEP  1, STRESS PERIOD 147
 UBDSV2 SAVING "   CONSTANT HEAD" ON UNIT  31 AT TIME STEP  1, STRESS PERIOD 147
 UBDSV1 SAVING "FLOW RIGHT FACE " ON UNIT  31 AT TIME STEP  1, STRESS PERIOD 147
 UBDSV4 SAVING "           WELLS" ON UNIT  31 AT TIME STEP  1, STRESS PERIOD 147

 SAVING SATURATED THICKNESS AND FLOW TERMS ON UNIT  333 FOR MT3DMS
 BY THE LINK-MT3DMS PACKAGE V7 AT TIME STEP    1, STRESS PERIOD  147


 HEAD WILL BE SAVED ON UNIT   30 AT END OF TIME STEP    1, STRESS PERIOD  147
1
  VOLUMETRIC BUDGET FOR ENTIRE MODEL AT END OF TIME STEP    1, STRESS PERIOD 147
  ------------------------------------------------------------------------------

     CUMULATIVE VOLUMES      L**3       RATES FOR THIS TIME STEP      L**3/T
     ------------------                 ------------------------

           IN:                                      IN:
           ---                                      ---
             STORAGE =           0.0000               STORAGE =           0.0000
       CONSTANT HEAD =           0.0000         CONSTANT HEAD =           0.0000
               WELLS =       5.1438E-04                 WELLS =       2.4000E-04

            TOTAL IN =       5.1438E-04              TOTAL IN =       2.4000E-04

          OUT:                                     OUT:
          ----                                     ----
             STORAGE =           0.0000               STORAGE =           0.0000
       CONSTANT HEAD =       5.1438E-04         CONSTANT HEAD =       2.4000E-04
               WELLS =           0.0000                 WELLS =           0.0000

           TOTAL OUT =       5.1438E-04             TOTAL OUT =       2.4000E-04

            IN - OUT =           0.0000              IN - OUT =      -1.4552E-11

 PERCENT DISCREPANCY =           0.00     PERCENT DISCREPANCY =           0.00






         TIME SUMMARY AT END OF TIME STEP    1 IN STRESS PERIOD  147
                    SECONDS     MINUTES      HOURS       DAYS        YEARS
                    -----------------------------------------------------------
   TIME STEP LENGTH  1259.7      20.995     0.34992     1.45800E-02 3.99179E-05
 STRESS PERIOD TIME  1259.7      20.995     0.34992     1.45800E-02 3.99179E-05
         TOTAL TIME 1.85178E+05  3086.3      51.438      2.1433     5.86793E-03
1
1
                            STRESS PERIOD NO.  148, LENGTH =  0.1458000E-01
                            -----------------------------------------------

                              NUMBER OF TIME STEPS =     1

                               MULTIPLIER FOR DELT =     1.000

                            INITIAL TIME STEP SIZE =  0.1458000E-01

 WELL NO.  LAYER   ROW   COL   STRESS RATE         
 --------------------------------------------------
      1      1      1      1      0.2400E-03

      1 WELL 
 
 SOLVING FOR HEAD 

 OUTPUT CONTROL FOR STRESS PERIOD  148   TIME STEP    1
    SAVE HEAD FOR ALL LAYERS
    SAVE BUDGET
 UBDSV1 SAVING "         STORAGE" ON UNIT  31 AT TIME STEP  1, STRESS PERIOD 148
 UBDSV2 SAVING "   CONSTANT HEAD" ON UNIT  31 AT TIME STEP  1, STRESS PERIOD 148
 UBDSV1 SAVING "FLOW RIGHT FACE " ON UNIT  31 AT TIME STEP  1, STRESS PERIOD 148
 UBDSV4 SAVING "           WELLS" ON UNIT  31 AT TIME STEP  1, STRESS PERIOD 148

 SAVING SATURATED THICKNESS AND FLOW TERMS ON UNIT  333 FOR MT3DMS
 BY THE LINK-MT3DMS PACKAGE V7 AT TIME STEP    1, STRESS PERIOD  148


 HEAD WILL BE SAVED ON UNIT   30 AT END OF TIME STEP    1, STRESS PERIOD  148
1
  VOLUMETRIC BUDGET FOR ENTIRE MODEL AT END OF TIME STEP    1, STRESS PERIOD 148
  ------------------------------------------------------------------------------

     CUMULATIVE VOLUMES      L**3       RATES FOR THIS TIME STEP      L**3/T
     ------------------                 ------------------------

           IN:                                      IN:
           ---                                      ---
             STORAGE =           0.0000               STORAGE =           0.0000
       CONSTANT HEAD =           0.0000         CONSTANT HEAD =           0.0000
               WELLS =       5.1788E-04                 WELLS =       2.4000E-04

            TOTAL IN =       5.1788E-04              TOTAL IN =       2.4000E-04

          OUT:                                     OUT:
          ----                                     ----
             STORAGE =           0.0000               STORAGE =           0.0000
       CONSTANT HEAD =       5.1788E-04         CONSTANT HEAD =       2.4000E-04
               WELLS =           0.0000                 WELLS =           0.0000

           TOTAL OUT =       5.1788E-04             TOTAL OUT =       2.4000E-04

            IN - OUT =           0.0000              IN - OUT =      -1.4552E-11

 PERCENT DISCREPANCY =           0.00     PERCENT DISCREPANCY =           0.00






         TIME SUMMARY AT END OF TIME STEP    1 IN STRESS PERIOD  148
                    SECONDS     MINUTES      HOURS       DAYS        YEARS
                    -----------------------------------------------------------
   TIME STEP LENGTH  1259.7      20.995     0.34992     1.45800E-02 3.99179E-05
 STRESS PERIOD TIME  1259.7      20.995     0.34992     1.45800E-02 3.99179E-05
         TOTAL TIME 1.86438E+05  3107.3      51.788      2.1578     5.90785E-03
1
1
                            STRESS PERIOD NO.  149, LENGTH =  0.1458000E-01
                            -----------------------------------------------

                              NUMBER OF TIME STEPS =     1

                               MULTIPLIER FOR DELT =     1.000

                            INITIAL TIME STEP SIZE =  0.1458000E-01

 WELL NO.  LAYER   ROW   COL   STRESS RATE         
 --------------------------------------------------
      1      1      1      1      0.2400E-03

      1 WELL 
 
 SOLVING FOR HEAD 

 OUTPUT CONTROL FOR STRESS PERIOD  149   TIME STEP    1
    SAVE HEAD FOR ALL LAYERS
    SAVE BUDGET
 UBDSV1 SAVING "         STORAGE" ON UNIT  31 AT TIME STEP  1, STRESS PERIOD 149
 UBDSV2 SAVING "   CONSTANT HEAD" ON UNIT  31 AT TIME STEP  1, STRESS PERIOD 149
 UBDSV1 SAVING "FLOW RIGHT FACE " ON UNIT  31 AT TIME STEP  1, STRESS PERIOD 149
 UBDSV4 SAVING "           WELLS" ON UNIT  31 AT TIME STEP  1, STRESS PERIOD 149

 SAVING SATURATED THICKNESS AND FLOW TERMS ON UNIT  333 FOR MT3DMS
 BY THE LINK-MT3DMS PACKAGE V7 AT TIME STEP    1, STRESS PERIOD  149


 HEAD WILL BE SAVED ON UNIT   30 AT END OF TIME STEP    1, STRESS PERIOD  149
1
  VOLUMETRIC BUDGET FOR ENTIRE MODEL AT END OF TIME STEP    1, STRESS PERIOD 149
  ------------------------------------------------------------------------------

     CUMULATIVE VOLUMES      L**3       RATES FOR THIS TIME STEP      L**3/T
     ------------------                 ------------------------

           IN:                                      IN:
           ---                                      ---
             STORAGE =           0.0000               STORAGE =           0.0000
       CONSTANT HEAD =           0.0000         CONSTANT HEAD =           0.0000
               WELLS =       5.2138E-04                 WELLS =       2.4000E-04

            TOTAL IN =       5.2138E-04              TOTAL IN =       2.4000E-04

          OUT:                                     OUT:
          ----                                     ----
             STORAGE =           0.0000               STORAGE =           0.0000
       CONSTANT HEAD =       5.2138E-04         CONSTANT HEAD =       2.4000E-04
               WELLS =           0.0000                 WELLS =           0.0000

           TOTAL OUT =       5.2138E-04             TOTAL OUT =       2.4000E-04

            IN - OUT =           0.0000              IN - OUT =      -1.4552E-11

 PERCENT DISCREPANCY =           0.00     PERCENT DISCREPANCY =           0.00






         TIME SUMMARY AT END OF TIME STEP    1 IN STRESS PERIOD  149
                    SECONDS     MINUTES      HOURS       DAYS        YEARS
                    -----------------------------------------------------------
   TIME STEP LENGTH  1259.7      20.995     0.34992     1.45800E-02 3.99179E-05
 STRESS PERIOD TIME  1259.7      20.995     0.34992     1.45800E-02 3.99179E-05
         TOTAL TIME 1.87697E+05  3128.3      52.138      2.1724     5.94777E-03
1
1
                            STRESS PERIOD NO.  150, LENGTH =  0.1458000E-01
                            -----------------------------------------------

                              NUMBER OF TIME STEPS =     1

                               MULTIPLIER FOR DELT =     1.000

                            INITIAL TIME STEP SIZE =  0.1458000E-01

 WELL NO.  LAYER   ROW   COL   STRESS RATE         
 --------------------------------------------------
      1      1      1      1      0.2400E-03

      1 WELL 
 
 SOLVING FOR HEAD 

 OUTPUT CONTROL FOR STRESS PERIOD  150   TIME STEP    1
    SAVE HEAD FOR ALL LAYERS
    SAVE BUDGET
 UBDSV1 SAVING "         STORAGE" ON UNIT  31 AT TIME STEP  1, STRESS PERIOD 150
 UBDSV2 SAVING "   CONSTANT HEAD" ON UNIT  31 AT TIME STEP  1, STRESS PERIOD 150
 UBDSV1 SAVING "FLOW RIGHT FACE " ON UNIT  31 AT TIME STEP  1, STRESS PERIOD 150
 UBDSV4 SAVING "           WELLS" ON UNIT  31 AT TIME STEP  1, STRESS PERIOD 150

 SAVING SATURATED THICKNESS AND FLOW TERMS ON UNIT  333 FOR MT3DMS
 BY THE LINK-MT3DMS PACKAGE V7 AT TIME STEP    1, STRESS PERIOD  150


 HEAD WILL BE SAVED ON UNIT   30 AT END OF TIME STEP    1, STRESS PERIOD  150
1
  VOLUMETRIC BUDGET FOR ENTIRE MODEL AT END OF TIME STEP    1, STRESS PERIOD 150
  ------------------------------------------------------------------------------

     CUMULATIVE VOLUMES      L**3       RATES FOR THIS TIME STEP      L**3/T
     ------------------                 ------------------------

           IN:                                      IN:
           ---                                      ---
             STORAGE =           0.0000               STORAGE =           0.0000
       CONSTANT HEAD =           0.0000         CONSTANT HEAD =           0.0000
               WELLS =       5.2488E-04                 WELLS =       2.4000E-04

            TOTAL IN =       5.2488E-04              TOTAL IN =       2.4000E-04

          OUT:                                     OUT:
          ----                                     ----
             STORAGE =           0.0000               STORAGE =           0.0000
       CONSTANT HEAD =       5.2488E-04         CONSTANT HEAD =       2.4000E-04
               WELLS =           0.0000                 WELLS =           0.0000

           TOTAL OUT =       5.2488E-04             TOTAL OUT =       2.4000E-04

            IN - OUT =           0.0000              IN - OUT =      -1.4552E-11

 PERCENT DISCREPANCY =           0.00     PERCENT DISCREPANCY =           0.00






         TIME SUMMARY AT END OF TIME STEP    1 IN STRESS PERIOD  150
                    SECONDS     MINUTES      HOURS       DAYS        YEARS
                    -----------------------------------------------------------
   TIME STEP LENGTH  1259.7      20.995     0.34992     1.45800E-02 3.99179E-05
 STRESS PERIOD TIME  1259.7      20.995     0.34992     1.45800E-02 3.99179E-05
         TOTAL TIME 1.88957E+05  3149.3      52.488      2.1870     5.98768E-03
1
1
                            STRESS PERIOD NO.  151, LENGTH =  0.1458000E-01
                            -----------------------------------------------

                              NUMBER OF TIME STEPS =     1

                               MULTIPLIER FOR DELT =     1.000

                            INITIAL TIME STEP SIZE =  0.1458000E-01

 WELL NO.  LAYER   ROW   COL   STRESS RATE         
 --------------------------------------------------
      1      1      1      1      0.2400E-03

      1 WELL 
 
 SOLVING FOR HEAD 

 OUTPUT CONTROL FOR STRESS PERIOD  151   TIME STEP    1
    SAVE HEAD FOR ALL LAYERS
    SAVE BUDGET
 UBDSV1 SAVING "         STORAGE" ON UNIT  31 AT TIME STEP  1, STRESS PERIOD 151
 UBDSV2 SAVING "   CONSTANT HEAD" ON UNIT  31 AT TIME STEP  1, STRESS PERIOD 151
 UBDSV1 SAVING "FLOW RIGHT FACE " ON UNIT  31 AT TIME STEP  1, STRESS PERIOD 151
 UBDSV4 SAVING "           WELLS" ON UNIT  31 AT TIME STEP  1, STRESS PERIOD 151

 SAVING SATURATED THICKNESS AND FLOW TERMS ON UNIT  333 FOR MT3DMS
 BY THE LINK-MT3DMS PACKAGE V7 AT TIME STEP    1, STRESS PERIOD  151


 HEAD WILL BE SAVED ON UNIT   30 AT END OF TIME STEP    1, STRESS PERIOD  151
1
  VOLUMETRIC BUDGET FOR ENTIRE MODEL AT END OF TIME STEP    1, STRESS PERIOD 151
  ------------------------------------------------------------------------------

     CUMULATIVE VOLUMES      L**3       RATES FOR THIS TIME STEP      L**3/T
     ------------------                 ------------------------

           IN:                                      IN:
           ---                                      ---
             STORAGE =           0.0000               STORAGE =           0.0000
       CONSTANT HEAD =           0.0000         CONSTANT HEAD =           0.0000
               WELLS =       5.2838E-04                 WELLS =       2.4000E-04

            TOTAL IN =       5.2838E-04              TOTAL IN =       2.4000E-04

          OUT:                                     OUT:
          ----                                     ----
             STORAGE =           0.0000               STORAGE =           0.0000
       CONSTANT HEAD =       5.2838E-04         CONSTANT HEAD =       2.4000E-04
               WELLS =           0.0000                 WELLS =           0.0000

           TOTAL OUT =       5.2838E-04             TOTAL OUT =       2.4000E-04

            IN - OUT =           0.0000              IN - OUT =      -1.4552E-11

 PERCENT DISCREPANCY =           0.00     PERCENT DISCREPANCY =           0.00






         TIME SUMMARY AT END OF TIME STEP    1 IN STRESS PERIOD  151
                    SECONDS     MINUTES      HOURS       DAYS        YEARS
                    -----------------------------------------------------------
   TIME STEP LENGTH  1259.7      20.995     0.34992     1.45800E-02 3.99179E-05
 STRESS PERIOD TIME  1259.7      20.995     0.34992     1.45800E-02 3.99179E-05
         TOTAL TIME 1.90217E+05  3170.3      52.838      2.2016     6.02760E-03
1
1
                            STRESS PERIOD NO.  152, LENGTH =  0.1458000E-01
                            -----------------------------------------------

                              NUMBER OF TIME STEPS =     1

                               MULTIPLIER FOR DELT =     1.000

                            INITIAL TIME STEP SIZE =  0.1458000E-01

 WELL NO.  LAYER   ROW   COL   STRESS RATE         
 --------------------------------------------------
      1      1      1      1      0.2400E-03

      1 WELL 
 
 SOLVING FOR HEAD 

 OUTPUT CONTROL FOR STRESS PERIOD  152   TIME STEP    1
    SAVE HEAD FOR ALL LAYERS
    SAVE BUDGET
 UBDSV1 SAVING "         STORAGE" ON UNIT  31 AT TIME STEP  1, STRESS PERIOD 152
 UBDSV2 SAVING "   CONSTANT HEAD" ON UNIT  31 AT TIME STEP  1, STRESS PERIOD 152
 UBDSV1 SAVING "FLOW RIGHT FACE " ON UNIT  31 AT TIME STEP  1, STRESS PERIOD 152
 UBDSV4 SAVING "           WELLS" ON UNIT  31 AT TIME STEP  1, STRESS PERIOD 152

 SAVING SATURATED THICKNESS AND FLOW TERMS ON UNIT  333 FOR MT3DMS
 BY THE LINK-MT3DMS PACKAGE V7 AT TIME STEP    1, STRESS PERIOD  152


 HEAD WILL BE SAVED ON UNIT   30 AT END OF TIME STEP    1, STRESS PERIOD  152
1
  VOLUMETRIC BUDGET FOR ENTIRE MODEL AT END OF TIME STEP    1, STRESS PERIOD 152
  ------------------------------------------------------------------------------

     CUMULATIVE VOLUMES      L**3       RATES FOR THIS TIME STEP      L**3/T
     ------------------                 ------------------------

           IN:                                      IN:
           ---                                      ---
             STORAGE =           0.0000               STORAGE =           0.0000
       CONSTANT HEAD =           0.0000         CONSTANT HEAD =           0.0000
               WELLS =       5.3188E-04                 WELLS =       2.4000E-04

            TOTAL IN =       5.3188E-04              TOTAL IN =       2.4000E-04

          OUT:                                     OUT:
          ----                                     ----
             STORAGE =           0.0000               STORAGE =           0.0000
       CONSTANT HEAD =       5.3188E-04         CONSTANT HEAD =       2.4000E-04
               WELLS =           0.0000                 WELLS =           0.0000

           TOTAL OUT =       5.3188E-04             TOTAL OUT =       2.4000E-04

            IN - OUT =           0.0000              IN - OUT =      -1.4552E-11

 PERCENT DISCREPANCY =           0.00     PERCENT DISCREPANCY =           0.00






         TIME SUMMARY AT END OF TIME STEP    1 IN STRESS PERIOD  152
                    SECONDS     MINUTES      HOURS       DAYS        YEARS
                    -----------------------------------------------------------
   TIME STEP LENGTH  1259.7      20.995     0.34992     1.45800E-02 3.99179E-05
 STRESS PERIOD TIME  1259.7      20.995     0.34992     1.45800E-02 3.99179E-05
         TOTAL TIME 1.91476E+05  3191.3      53.188      2.2162     6.06752E-03
1
1
                            STRESS PERIOD NO.  153, LENGTH =  0.1458000E-01
                            -----------------------------------------------

                              NUMBER OF TIME STEPS =     1

                               MULTIPLIER FOR DELT =     1.000

                            INITIAL TIME STEP SIZE =  0.1458000E-01

 WELL NO.  LAYER   ROW   COL   STRESS RATE         
 --------------------------------------------------
      1      1      1      1      0.2400E-03

      1 WELL 
 
 SOLVING FOR HEAD 

 OUTPUT CONTROL FOR STRESS PERIOD  153   TIME STEP    1
    SAVE HEAD FOR ALL LAYERS
    SAVE BUDGET
 UBDSV1 SAVING "         STORAGE" ON UNIT  31 AT TIME STEP  1, STRESS PERIOD 153
 UBDSV2 SAVING "   CONSTANT HEAD" ON UNIT  31 AT TIME STEP  1, STRESS PERIOD 153
 UBDSV1 SAVING "FLOW RIGHT FACE " ON UNIT  31 AT TIME STEP  1, STRESS PERIOD 153
 UBDSV4 SAVING "           WELLS" ON UNIT  31 AT TIME STEP  1, STRESS PERIOD 153

 SAVING SATURATED THICKNESS AND FLOW TERMS ON UNIT  333 FOR MT3DMS
 BY THE LINK-MT3DMS PACKAGE V7 AT TIME STEP    1, STRESS PERIOD  153


 HEAD WILL BE SAVED ON UNIT   30 AT END OF TIME STEP    1, STRESS PERIOD  153
1
  VOLUMETRIC BUDGET FOR ENTIRE MODEL AT END OF TIME STEP    1, STRESS PERIOD 153
  ------------------------------------------------------------------------------

     CUMULATIVE VOLUMES      L**3       RATES FOR THIS TIME STEP      L**3/T
     ------------------                 ------------------------

           IN:                                      IN:
           ---                                      ---
             STORAGE =           0.0000               STORAGE =           0.0000
       CONSTANT HEAD =           0.0000         CONSTANT HEAD =           0.0000
               WELLS =       5.3538E-04                 WELLS =       2.4000E-04

            TOTAL IN =       5.3538E-04              TOTAL IN =       2.4000E-04

          OUT:                                     OUT:
          ----                                     ----
             STORAGE =           0.0000               STORAGE =           0.0000
       CONSTANT HEAD =       5.3538E-04         CONSTANT HEAD =       2.4000E-04
               WELLS =           0.0000                 WELLS =           0.0000

           TOTAL OUT =       5.3538E-04             TOTAL OUT =       2.4000E-04

            IN - OUT =           0.0000              IN - OUT =      -1.4552E-11

 PERCENT DISCREPANCY =           0.00     PERCENT DISCREPANCY =           0.00






         TIME SUMMARY AT END OF TIME STEP    1 IN STRESS PERIOD  153
                    SECONDS     MINUTES      HOURS       DAYS        YEARS
                    -----------------------------------------------------------
   TIME STEP LENGTH  1259.7      20.995     0.34992     1.45800E-02 3.99179E-05
 STRESS PERIOD TIME  1259.7      20.995     0.34992     1.45800E-02 3.99179E-05
         TOTAL TIME 1.92736E+05  3212.3      53.538      2.2307     6.10744E-03
1
1
                            STRESS PERIOD NO.  154, LENGTH =  0.1458000E-01
                            -----------------------------------------------

                              NUMBER OF TIME STEPS =     1

                               MULTIPLIER FOR DELT =     1.000

                            INITIAL TIME STEP SIZE =  0.1458000E-01

 WELL NO.  LAYER   ROW   COL   STRESS RATE         
 --------------------------------------------------
      1      1      1      1      0.2400E-03

      1 WELL 
 
 SOLVING FOR HEAD 

 OUTPUT CONTROL FOR STRESS PERIOD  154   TIME STEP    1
    SAVE HEAD FOR ALL LAYERS
    SAVE BUDGET
 UBDSV1 SAVING "         STORAGE" ON UNIT  31 AT TIME STEP  1, STRESS PERIOD 154
 UBDSV2 SAVING "   CONSTANT HEAD" ON UNIT  31 AT TIME STEP  1, STRESS PERIOD 154
 UBDSV1 SAVING "FLOW RIGHT FACE " ON UNIT  31 AT TIME STEP  1, STRESS PERIOD 154
 UBDSV4 SAVING "           WELLS" ON UNIT  31 AT TIME STEP  1, STRESS PERIOD 154

 SAVING SATURATED THICKNESS AND FLOW TERMS ON UNIT  333 FOR MT3DMS
 BY THE LINK-MT3DMS PACKAGE V7 AT TIME STEP    1, STRESS PERIOD  154


 HEAD WILL BE SAVED ON UNIT   30 AT END OF TIME STEP    1, STRESS PERIOD  154
1
  VOLUMETRIC BUDGET FOR ENTIRE MODEL AT END OF TIME STEP    1, STRESS PERIOD 154
  ------------------------------------------------------------------------------

     CUMULATIVE VOLUMES      L**3       RATES FOR THIS TIME STEP      L**3/T
     ------------------                 ------------------------

           IN:                                      IN:
           ---                                      ---
             STORAGE =           0.0000               STORAGE =           0.0000
       CONSTANT HEAD =           0.0000         CONSTANT HEAD =           0.0000
               WELLS =       5.3888E-04                 WELLS =       2.4000E-04

            TOTAL IN =       5.3888E-04              TOTAL IN =       2.4000E-04

          OUT:                                     OUT:
          ----                                     ----
             STORAGE =           0.0000               STORAGE =           0.0000
       CONSTANT HEAD =       5.3888E-04         CONSTANT HEAD =       2.4000E-04
               WELLS =           0.0000                 WELLS =           0.0000

           TOTAL OUT =       5.3888E-04             TOTAL OUT =       2.4000E-04

            IN - OUT =           0.0000              IN - OUT =      -1.4552E-11

 PERCENT DISCREPANCY =           0.00     PERCENT DISCREPANCY =           0.00






         TIME SUMMARY AT END OF TIME STEP    1 IN STRESS PERIOD  154
                    SECONDS     MINUTES      HOURS       DAYS        YEARS
                    -----------------------------------------------------------
   TIME STEP LENGTH  1259.7      20.995     0.34992     1.45800E-02 3.99179E-05
 STRESS PERIOD TIME  1259.7      20.995     0.34992     1.45800E-02 3.99179E-05
         TOTAL TIME 1.93996E+05  3233.3      53.888      2.2453     6.14736E-03
1
1
                            STRESS PERIOD NO.  155, LENGTH =  0.1458000E-01
                            -----------------------------------------------

                              NUMBER OF TIME STEPS =     1

                               MULTIPLIER FOR DELT =     1.000

                            INITIAL TIME STEP SIZE =  0.1458000E-01

 WELL NO.  LAYER   ROW   COL   STRESS RATE         
 --------------------------------------------------
      1      1      1      1      0.2400E-03

      1 WELL 
 
 SOLVING FOR HEAD 

 OUTPUT CONTROL FOR STRESS PERIOD  155   TIME STEP    1
    SAVE HEAD FOR ALL LAYERS
    SAVE BUDGET
 UBDSV1 SAVING "         STORAGE" ON UNIT  31 AT TIME STEP  1, STRESS PERIOD 155
 UBDSV2 SAVING "   CONSTANT HEAD" ON UNIT  31 AT TIME STEP  1, STRESS PERIOD 155
 UBDSV1 SAVING "FLOW RIGHT FACE " ON UNIT  31 AT TIME STEP  1, STRESS PERIOD 155
 UBDSV4 SAVING "           WELLS" ON UNIT  31 AT TIME STEP  1, STRESS PERIOD 155

 SAVING SATURATED THICKNESS AND FLOW TERMS ON UNIT  333 FOR MT3DMS
 BY THE LINK-MT3DMS PACKAGE V7 AT TIME STEP    1, STRESS PERIOD  155


 HEAD WILL BE SAVED ON UNIT   30 AT END OF TIME STEP    1, STRESS PERIOD  155
1
  VOLUMETRIC BUDGET FOR ENTIRE MODEL AT END OF TIME STEP    1, STRESS PERIOD 155
  ------------------------------------------------------------------------------

     CUMULATIVE VOLUMES      L**3       RATES FOR THIS TIME STEP      L**3/T
     ------------------                 ------------------------

           IN:                                      IN:
           ---                                      ---
             STORAGE =           0.0000               STORAGE =           0.0000
       CONSTANT HEAD =           0.0000         CONSTANT HEAD =           0.0000
               WELLS =       5.4238E-04                 WELLS =       2.4000E-04

            TOTAL IN =       5.4238E-04              TOTAL IN =       2.4000E-04

          OUT:                                     OUT:
          ----                                     ----
             STORAGE =           0.0000               STORAGE =           0.0000
       CONSTANT HEAD =       5.4238E-04         CONSTANT HEAD =       2.4000E-04
               WELLS =           0.0000                 WELLS =           0.0000

           TOTAL OUT =       5.4238E-04             TOTAL OUT =       2.4000E-04

            IN - OUT =           0.0000              IN - OUT =      -1.4552E-11

 PERCENT DISCREPANCY =           0.00     PERCENT DISCREPANCY =           0.00






         TIME SUMMARY AT END OF TIME STEP    1 IN STRESS PERIOD  155
                    SECONDS     MINUTES      HOURS       DAYS        YEARS
                    -----------------------------------------------------------
   TIME STEP LENGTH  1259.7      20.995     0.34992     1.45800E-02 3.99179E-05
 STRESS PERIOD TIME  1259.7      20.995     0.34992     1.45800E-02 3.99179E-05
         TOTAL TIME 1.95255E+05  3254.3      54.238      2.2599     6.18727E-03
1
1
                            STRESS PERIOD NO.  156, LENGTH =  0.1458000E-01
                            -----------------------------------------------

                              NUMBER OF TIME STEPS =     1

                               MULTIPLIER FOR DELT =     1.000

                            INITIAL TIME STEP SIZE =  0.1458000E-01

 WELL NO.  LAYER   ROW   COL   STRESS RATE         
 --------------------------------------------------
      1      1      1      1      0.2400E-03

      1 WELL 
 
 SOLVING FOR HEAD 

 OUTPUT CONTROL FOR STRESS PERIOD  156   TIME STEP    1
    SAVE HEAD FOR ALL LAYERS
    SAVE BUDGET
 UBDSV1 SAVING "         STORAGE" ON UNIT  31 AT TIME STEP  1, STRESS PERIOD 156
 UBDSV2 SAVING "   CONSTANT HEAD" ON UNIT  31 AT TIME STEP  1, STRESS PERIOD 156
 UBDSV1 SAVING "FLOW RIGHT FACE " ON UNIT  31 AT TIME STEP  1, STRESS PERIOD 156
 UBDSV4 SAVING "           WELLS" ON UNIT  31 AT TIME STEP  1, STRESS PERIOD 156

 SAVING SATURATED THICKNESS AND FLOW TERMS ON UNIT  333 FOR MT3DMS
 BY THE LINK-MT3DMS PACKAGE V7 AT TIME STEP    1, STRESS PERIOD  156


 HEAD WILL BE SAVED ON UNIT   30 AT END OF TIME STEP    1, STRESS PERIOD  156
1
  VOLUMETRIC BUDGET FOR ENTIRE MODEL AT END OF TIME STEP    1, STRESS PERIOD 156
  ------------------------------------------------------------------------------

     CUMULATIVE VOLUMES      L**3       RATES FOR THIS TIME STEP      L**3/T
     ------------------                 ------------------------

           IN:                                      IN:
           ---                                      ---
             STORAGE =           0.0000               STORAGE =           0.0000
       CONSTANT HEAD =           0.0000         CONSTANT HEAD =           0.0000
               WELLS =       5.4588E-04                 WELLS =       2.4000E-04

            TOTAL IN =       5.4588E-04              TOTAL IN =       2.4000E-04

          OUT:                                     OUT:
          ----                                     ----
             STORAGE =           0.0000               STORAGE =           0.0000
       CONSTANT HEAD =       5.4588E-04         CONSTANT HEAD =       2.4000E-04
               WELLS =           0.0000                 WELLS =           0.0000

           TOTAL OUT =       5.4588E-04             TOTAL OUT =       2.4000E-04

            IN - OUT =           0.0000              IN - OUT =      -1.4552E-11

 PERCENT DISCREPANCY =           0.00     PERCENT DISCREPANCY =           0.00






         TIME SUMMARY AT END OF TIME STEP    1 IN STRESS PERIOD  156
                    SECONDS     MINUTES      HOURS       DAYS        YEARS
                    -----------------------------------------------------------
   TIME STEP LENGTH  1259.7      20.995     0.34992     1.45800E-02 3.99179E-05
 STRESS PERIOD TIME  1259.7      20.995     0.34992     1.45800E-02 3.99179E-05
         TOTAL TIME 1.96515E+05  3275.3      54.588      2.2745     6.22719E-03
1
1
                            STRESS PERIOD NO.  157, LENGTH =  0.1458000E-01
                            -----------------------------------------------

                              NUMBER OF TIME STEPS =     1

                               MULTIPLIER FOR DELT =     1.000

                            INITIAL TIME STEP SIZE =  0.1458000E-01

 WELL NO.  LAYER   ROW   COL   STRESS RATE         
 --------------------------------------------------
      1      1      1      1      0.2400E-03

      1 WELL 
 
 SOLVING FOR HEAD 

 OUTPUT CONTROL FOR STRESS PERIOD  157   TIME STEP    1
    SAVE HEAD FOR ALL LAYERS
    SAVE BUDGET
 UBDSV1 SAVING "         STORAGE" ON UNIT  31 AT TIME STEP  1, STRESS PERIOD 157
 UBDSV2 SAVING "   CONSTANT HEAD" ON UNIT  31 AT TIME STEP  1, STRESS PERIOD 157
 UBDSV1 SAVING "FLOW RIGHT FACE " ON UNIT  31 AT TIME STEP  1, STRESS PERIOD 157
 UBDSV4 SAVING "           WELLS" ON UNIT  31 AT TIME STEP  1, STRESS PERIOD 157

 SAVING SATURATED THICKNESS AND FLOW TERMS ON UNIT  333 FOR MT3DMS
 BY THE LINK-MT3DMS PACKAGE V7 AT TIME STEP    1, STRESS PERIOD  157


 HEAD WILL BE SAVED ON UNIT   30 AT END OF TIME STEP    1, STRESS PERIOD  157
1
  VOLUMETRIC BUDGET FOR ENTIRE MODEL AT END OF TIME STEP    1, STRESS PERIOD 157
  ------------------------------------------------------------------------------

     CUMULATIVE VOLUMES      L**3       RATES FOR THIS TIME STEP      L**3/T
     ------------------                 ------------------------

           IN:                                      IN:
           ---                                      ---
             STORAGE =           0.0000               STORAGE =           0.0000
       CONSTANT HEAD =           0.0000         CONSTANT HEAD =           0.0000
               WELLS =       5.4938E-04                 WELLS =       2.4000E-04

            TOTAL IN =       5.4938E-04              TOTAL IN =       2.4000E-04

          OUT:                                     OUT:
          ----                                     ----
             STORAGE =           0.0000               STORAGE =           0.0000
       CONSTANT HEAD =       5.4938E-04         CONSTANT HEAD =       2.4000E-04
               WELLS =           0.0000                 WELLS =           0.0000

           TOTAL OUT =       5.4938E-04             TOTAL OUT =       2.4000E-04

            IN - OUT =           0.0000              IN - OUT =      -1.4552E-11

 PERCENT DISCREPANCY =           0.00     PERCENT DISCREPANCY =           0.00






         TIME SUMMARY AT END OF TIME STEP    1 IN STRESS PERIOD  157
                    SECONDS     MINUTES      HOURS       DAYS        YEARS
                    -----------------------------------------------------------
   TIME STEP LENGTH  1259.7      20.995     0.34992     1.45800E-02 3.99179E-05
 STRESS PERIOD TIME  1259.7      20.995     0.34992     1.45800E-02 3.99179E-05
         TOTAL TIME 1.97775E+05  3296.2      54.937      2.2891     6.26711E-03
1
1
                            STRESS PERIOD NO.  158, LENGTH =  0.1458000E-01
                            -----------------------------------------------

                              NUMBER OF TIME STEPS =     1

                               MULTIPLIER FOR DELT =     1.000

                            INITIAL TIME STEP SIZE =  0.1458000E-01

 WELL NO.  LAYER   ROW   COL   STRESS RATE         
 --------------------------------------------------
      1      1      1      1      0.2400E-03

      1 WELL 
 
 SOLVING FOR HEAD 

 OUTPUT CONTROL FOR STRESS PERIOD  158   TIME STEP    1
    SAVE HEAD FOR ALL LAYERS
    SAVE BUDGET
 UBDSV1 SAVING "         STORAGE" ON UNIT  31 AT TIME STEP  1, STRESS PERIOD 158
 UBDSV2 SAVING "   CONSTANT HEAD" ON UNIT  31 AT TIME STEP  1, STRESS PERIOD 158
 UBDSV1 SAVING "FLOW RIGHT FACE " ON UNIT  31 AT TIME STEP  1, STRESS PERIOD 158
 UBDSV4 SAVING "           WELLS" ON UNIT  31 AT TIME STEP  1, STRESS PERIOD 158

 SAVING SATURATED THICKNESS AND FLOW TERMS ON UNIT  333 FOR MT3DMS
 BY THE LINK-MT3DMS PACKAGE V7 AT TIME STEP    1, STRESS PERIOD  158


 HEAD WILL BE SAVED ON UNIT   30 AT END OF TIME STEP    1, STRESS PERIOD  158
1
  VOLUMETRIC BUDGET FOR ENTIRE MODEL AT END OF TIME STEP    1, STRESS PERIOD 158
  ------------------------------------------------------------------------------

     CUMULATIVE VOLUMES      L**3       RATES FOR THIS TIME STEP      L**3/T
     ------------------                 ------------------------

           IN:                                      IN:
           ---                                      ---
             STORAGE =           0.0000               STORAGE =           0.0000
       CONSTANT HEAD =           0.0000         CONSTANT HEAD =           0.0000
               WELLS =       5.5287E-04                 WELLS =       2.4000E-04

            TOTAL IN =       5.5287E-04              TOTAL IN =       2.4000E-04

          OUT:                                     OUT:
          ----                                     ----
             STORAGE =           0.0000               STORAGE =           0.0000
       CONSTANT HEAD =       5.5287E-04         CONSTANT HEAD =       2.4000E-04
               WELLS =           0.0000                 WELLS =           0.0000

           TOTAL OUT =       5.5287E-04             TOTAL OUT =       2.4000E-04

            IN - OUT =           0.0000              IN - OUT =      -1.4552E-11

 PERCENT DISCREPANCY =           0.00     PERCENT DISCREPANCY =           0.00






         TIME SUMMARY AT END OF TIME STEP    1 IN STRESS PERIOD  158
                    SECONDS     MINUTES      HOURS       DAYS        YEARS
                    -----------------------------------------------------------
   TIME STEP LENGTH  1259.7      20.995     0.34992     1.45800E-02 3.99179E-05
 STRESS PERIOD TIME  1259.7      20.995     0.34992     1.45800E-02 3.99179E-05
         TOTAL TIME 1.99035E+05  3317.2      55.287      2.3036     6.30703E-03
1
1
                            STRESS PERIOD NO.  159, LENGTH =  0.1458000E-01
                            -----------------------------------------------

                              NUMBER OF TIME STEPS =     1

                               MULTIPLIER FOR DELT =     1.000

                            INITIAL TIME STEP SIZE =  0.1458000E-01

 WELL NO.  LAYER   ROW   COL   STRESS RATE         
 --------------------------------------------------
      1      1      1      1      0.2400E-03

      1 WELL 
 
 SOLVING FOR HEAD 

 OUTPUT CONTROL FOR STRESS PERIOD  159   TIME STEP    1
    SAVE HEAD FOR ALL LAYERS
    SAVE BUDGET
 UBDSV1 SAVING "         STORAGE" ON UNIT  31 AT TIME STEP  1, STRESS PERIOD 159
 UBDSV2 SAVING "   CONSTANT HEAD" ON UNIT  31 AT TIME STEP  1, STRESS PERIOD 159
 UBDSV1 SAVING "FLOW RIGHT FACE " ON UNIT  31 AT TIME STEP  1, STRESS PERIOD 159
 UBDSV4 SAVING "           WELLS" ON UNIT  31 AT TIME STEP  1, STRESS PERIOD 159

 SAVING SATURATED THICKNESS AND FLOW TERMS ON UNIT  333 FOR MT3DMS
 BY THE LINK-MT3DMS PACKAGE V7 AT TIME STEP    1, STRESS PERIOD  159


 HEAD WILL BE SAVED ON UNIT   30 AT END OF TIME STEP    1, STRESS PERIOD  159
1
  VOLUMETRIC BUDGET FOR ENTIRE MODEL AT END OF TIME STEP    1, STRESS PERIOD 159
  ------------------------------------------------------------------------------

     CUMULATIVE VOLUMES      L**3       RATES FOR THIS TIME STEP      L**3/T
     ------------------                 ------------------------

           IN:                                      IN:
           ---                                      ---
             STORAGE =           0.0000               STORAGE =           0.0000
       CONSTANT HEAD =           0.0000         CONSTANT HEAD =           0.0000
               WELLS =       5.5637E-04                 WELLS =       2.4000E-04

            TOTAL IN =       5.5637E-04              TOTAL IN =       2.4000E-04

          OUT:                                     OUT:
          ----                                     ----
             STORAGE =           0.0000               STORAGE =           0.0000
       CONSTANT HEAD =       5.5637E-04         CONSTANT HEAD =       2.4000E-04
               WELLS =           0.0000                 WELLS =           0.0000

           TOTAL OUT =       5.5637E-04             TOTAL OUT =       2.4000E-04

            IN - OUT =           0.0000              IN - OUT =      -1.4552E-11

 PERCENT DISCREPANCY =           0.00     PERCENT DISCREPANCY =           0.00






         TIME SUMMARY AT END OF TIME STEP    1 IN STRESS PERIOD  159
                    SECONDS     MINUTES      HOURS       DAYS        YEARS
                    -----------------------------------------------------------
   TIME STEP LENGTH  1259.7      20.995     0.34992     1.45800E-02 3.99179E-05
 STRESS PERIOD TIME  1259.7      20.995     0.34992     1.45800E-02 3.99179E-05
         TOTAL TIME 2.00294E+05  3338.2      55.637      2.3182     6.34694E-03
1
1
                            STRESS PERIOD NO.  160, LENGTH =  0.1458000E-01
                            -----------------------------------------------

                              NUMBER OF TIME STEPS =     1

                               MULTIPLIER FOR DELT =     1.000

                            INITIAL TIME STEP SIZE =  0.1458000E-01

 WELL NO.  LAYER   ROW   COL   STRESS RATE         
 --------------------------------------------------
      1      1      1      1      0.2400E-03

      1 WELL 
 
 SOLVING FOR HEAD 

 OUTPUT CONTROL FOR STRESS PERIOD  160   TIME STEP    1
    SAVE HEAD FOR ALL LAYERS
    SAVE BUDGET
 UBDSV1 SAVING "         STORAGE" ON UNIT  31 AT TIME STEP  1, STRESS PERIOD 160
 UBDSV2 SAVING "   CONSTANT HEAD" ON UNIT  31 AT TIME STEP  1, STRESS PERIOD 160
 UBDSV1 SAVING "FLOW RIGHT FACE " ON UNIT  31 AT TIME STEP  1, STRESS PERIOD 160
 UBDSV4 SAVING "           WELLS" ON UNIT  31 AT TIME STEP  1, STRESS PERIOD 160

 SAVING SATURATED THICKNESS AND FLOW TERMS ON UNIT  333 FOR MT3DMS
 BY THE LINK-MT3DMS PACKAGE V7 AT TIME STEP    1, STRESS PERIOD  160


 HEAD WILL BE SAVED ON UNIT   30 AT END OF TIME STEP    1, STRESS PERIOD  160
1
  VOLUMETRIC BUDGET FOR ENTIRE MODEL AT END OF TIME STEP    1, STRESS PERIOD 160
  ------------------------------------------------------------------------------

     CUMULATIVE VOLUMES      L**3       RATES FOR THIS TIME STEP      L**3/T
     ------------------                 ------------------------

           IN:                                      IN:
           ---                                      ---
             STORAGE =           0.0000               STORAGE =           0.0000
       CONSTANT HEAD =           0.0000         CONSTANT HEAD =           0.0000
               WELLS =       5.5987E-04                 WELLS =       2.4000E-04

            TOTAL IN =       5.5987E-04              TOTAL IN =       2.4000E-04

          OUT:                                     OUT:
          ----                                     ----
             STORAGE =           0.0000               STORAGE =           0.0000
       CONSTANT HEAD =       5.5987E-04         CONSTANT HEAD =       2.4000E-04
               WELLS =           0.0000                 WELLS =           0.0000

           TOTAL OUT =       5.5987E-04             TOTAL OUT =       2.4000E-04

            IN - OUT =           0.0000              IN - OUT =      -1.4552E-11

 PERCENT DISCREPANCY =           0.00     PERCENT DISCREPANCY =           0.00






         TIME SUMMARY AT END OF TIME STEP    1 IN STRESS PERIOD  160
                    SECONDS     MINUTES      HOURS       DAYS        YEARS
                    -----------------------------------------------------------
   TIME STEP LENGTH  1259.7      20.995     0.34992     1.45800E-02 3.99179E-05
 STRESS PERIOD TIME  1259.7      20.995     0.34992     1.45800E-02 3.99179E-05
         TOTAL TIME 2.01554E+05  3359.2      55.987      2.3328     6.38686E-03
1
1
                            STRESS PERIOD NO.  161, LENGTH =  0.1458000E-01
                            -----------------------------------------------

                              NUMBER OF TIME STEPS =     1

                               MULTIPLIER FOR DELT =     1.000

                            INITIAL TIME STEP SIZE =  0.1458000E-01

 WELL NO.  LAYER   ROW   COL   STRESS RATE         
 --------------------------------------------------
      1      1      1      1      0.2400E-03

      1 WELL 
 
 SOLVING FOR HEAD 

 OUTPUT CONTROL FOR STRESS PERIOD  161   TIME STEP    1
    SAVE HEAD FOR ALL LAYERS
    SAVE BUDGET
 UBDSV1 SAVING "         STORAGE" ON UNIT  31 AT TIME STEP  1, STRESS PERIOD 161
 UBDSV2 SAVING "   CONSTANT HEAD" ON UNIT  31 AT TIME STEP  1, STRESS PERIOD 161
 UBDSV1 SAVING "FLOW RIGHT FACE " ON UNIT  31 AT TIME STEP  1, STRESS PERIOD 161
 UBDSV4 SAVING "           WELLS" ON UNIT  31 AT TIME STEP  1, STRESS PERIOD 161

 SAVING SATURATED THICKNESS AND FLOW TERMS ON UNIT  333 FOR MT3DMS
 BY THE LINK-MT3DMS PACKAGE V7 AT TIME STEP    1, STRESS PERIOD  161


 HEAD WILL BE SAVED ON UNIT   30 AT END OF TIME STEP    1, STRESS PERIOD  161
1
  VOLUMETRIC BUDGET FOR ENTIRE MODEL AT END OF TIME STEP    1, STRESS PERIOD 161
  ------------------------------------------------------------------------------

     CUMULATIVE VOLUMES      L**3       RATES FOR THIS TIME STEP      L**3/T
     ------------------                 ------------------------

           IN:                                      IN:
           ---                                      ---
             STORAGE =           0.0000               STORAGE =           0.0000
       CONSTANT HEAD =           0.0000         CONSTANT HEAD =           0.0000
               WELLS =       5.6337E-04                 WELLS =       2.4000E-04

            TOTAL IN =       5.6337E-04              TOTAL IN =       2.4000E-04

          OUT:                                     OUT:
          ----                                     ----
             STORAGE =           0.0000               STORAGE =           0.0000
       CONSTANT HEAD =       5.6337E-04         CONSTANT HEAD =       2.4000E-04
               WELLS =           0.0000                 WELLS =           0.0000

           TOTAL OUT =       5.6337E-04             TOTAL OUT =       2.4000E-04

            IN - OUT =           0.0000              IN - OUT =      -1.4552E-11

 PERCENT DISCREPANCY =           0.00     PERCENT DISCREPANCY =           0.00






         TIME SUMMARY AT END OF TIME STEP    1 IN STRESS PERIOD  161
                    SECONDS     MINUTES      HOURS       DAYS        YEARS
                    -----------------------------------------------------------
   TIME STEP LENGTH  1259.7      20.995     0.34992     1.45800E-02 3.99179E-05
 STRESS PERIOD TIME  1259.7      20.995     0.34992     1.45800E-02 3.99179E-05
         TOTAL TIME 2.02814E+05  3380.2      56.337      2.3474     6.42678E-03
1
1
                            STRESS PERIOD NO.  162, LENGTH =  0.1458000E-01
                            -----------------------------------------------

                              NUMBER OF TIME STEPS =     1

                               MULTIPLIER FOR DELT =     1.000

                            INITIAL TIME STEP SIZE =  0.1458000E-01

 WELL NO.  LAYER   ROW   COL   STRESS RATE         
 --------------------------------------------------
      1      1      1      1      0.2400E-03

      1 WELL 
 
 SOLVING FOR HEAD 

 OUTPUT CONTROL FOR STRESS PERIOD  162   TIME STEP    1
    SAVE HEAD FOR ALL LAYERS
    SAVE BUDGET
 UBDSV1 SAVING "         STORAGE" ON UNIT  31 AT TIME STEP  1, STRESS PERIOD 162
 UBDSV2 SAVING "   CONSTANT HEAD" ON UNIT  31 AT TIME STEP  1, STRESS PERIOD 162
 UBDSV1 SAVING "FLOW RIGHT FACE " ON UNIT  31 AT TIME STEP  1, STRESS PERIOD 162
 UBDSV4 SAVING "           WELLS" ON UNIT  31 AT TIME STEP  1, STRESS PERIOD 162

 SAVING SATURATED THICKNESS AND FLOW TERMS ON UNIT  333 FOR MT3DMS
 BY THE LINK-MT3DMS PACKAGE V7 AT TIME STEP    1, STRESS PERIOD  162


 HEAD WILL BE SAVED ON UNIT   30 AT END OF TIME STEP    1, STRESS PERIOD  162
1
  VOLUMETRIC BUDGET FOR ENTIRE MODEL AT END OF TIME STEP    1, STRESS PERIOD 162
  ------------------------------------------------------------------------------

     CUMULATIVE VOLUMES      L**3       RATES FOR THIS TIME STEP      L**3/T
     ------------------                 ------------------------

           IN:                                      IN:
           ---                                      ---
             STORAGE =           0.0000               STORAGE =           0.0000
       CONSTANT HEAD =           0.0000         CONSTANT HEAD =           0.0000
               WELLS =       5.6687E-04                 WELLS =       2.4000E-04

            TOTAL IN =       5.6687E-04              TOTAL IN =       2.4000E-04

          OUT:                                     OUT:
          ----                                     ----
             STORAGE =           0.0000               STORAGE =           0.0000
       CONSTANT HEAD =       5.6687E-04         CONSTANT HEAD =       2.4000E-04
               WELLS =           0.0000                 WELLS =           0.0000

           TOTAL OUT =       5.6687E-04             TOTAL OUT =       2.4000E-04

            IN - OUT =           0.0000              IN - OUT =      -1.4552E-11

 PERCENT DISCREPANCY =           0.00     PERCENT DISCREPANCY =           0.00






         TIME SUMMARY AT END OF TIME STEP    1 IN STRESS PERIOD  162
                    SECONDS     MINUTES      HOURS       DAYS        YEARS
                    -----------------------------------------------------------
   TIME STEP LENGTH  1259.7      20.995     0.34992     1.45800E-02 3.99179E-05
 STRESS PERIOD TIME  1259.7      20.995     0.34992     1.45800E-02 3.99179E-05
         TOTAL TIME 2.04073E+05  3401.2      56.687      2.3620     6.46670E-03
1
1
                            STRESS PERIOD NO.  163, LENGTH =  0.1458000E-01
                            -----------------------------------------------

                              NUMBER OF TIME STEPS =     1

                               MULTIPLIER FOR DELT =     1.000

                            INITIAL TIME STEP SIZE =  0.1458000E-01

 WELL NO.  LAYER   ROW   COL   STRESS RATE         
 --------------------------------------------------
      1      1      1      1      0.2400E-03

      1 WELL 
 
 SOLVING FOR HEAD 

 OUTPUT CONTROL FOR STRESS PERIOD  163   TIME STEP    1
    SAVE HEAD FOR ALL LAYERS
    SAVE BUDGET
 UBDSV1 SAVING "         STORAGE" ON UNIT  31 AT TIME STEP  1, STRESS PERIOD 163
 UBDSV2 SAVING "   CONSTANT HEAD" ON UNIT  31 AT TIME STEP  1, STRESS PERIOD 163
 UBDSV1 SAVING "FLOW RIGHT FACE " ON UNIT  31 AT TIME STEP  1, STRESS PERIOD 163
 UBDSV4 SAVING "           WELLS" ON UNIT  31 AT TIME STEP  1, STRESS PERIOD 163

 SAVING SATURATED THICKNESS AND FLOW TERMS ON UNIT  333 FOR MT3DMS
 BY THE LINK-MT3DMS PACKAGE V7 AT TIME STEP    1, STRESS PERIOD  163


 HEAD WILL BE SAVED ON UNIT   30 AT END OF TIME STEP    1, STRESS PERIOD  163
1
  VOLUMETRIC BUDGET FOR ENTIRE MODEL AT END OF TIME STEP    1, STRESS PERIOD 163
  ------------------------------------------------------------------------------

     CUMULATIVE VOLUMES      L**3       RATES FOR THIS TIME STEP      L**3/T
     ------------------                 ------------------------

           IN:                                      IN:
           ---                                      ---
             STORAGE =           0.0000               STORAGE =           0.0000
       CONSTANT HEAD =           0.0000         CONSTANT HEAD =           0.0000
               WELLS =       5.7037E-04                 WELLS =       2.4000E-04

            TOTAL IN =       5.7037E-04              TOTAL IN =       2.4000E-04

          OUT:                                     OUT:
          ----                                     ----
             STORAGE =           0.0000               STORAGE =           0.0000
       CONSTANT HEAD =       5.7037E-04         CONSTANT HEAD =       2.4000E-04
               WELLS =           0.0000                 WELLS =           0.0000

           TOTAL OUT =       5.7037E-04             TOTAL OUT =       2.4000E-04

            IN - OUT =           0.0000              IN - OUT =      -1.4552E-11

 PERCENT DISCREPANCY =           0.00     PERCENT DISCREPANCY =           0.00






         TIME SUMMARY AT END OF TIME STEP    1 IN STRESS PERIOD  163
                    SECONDS     MINUTES      HOURS       DAYS        YEARS
                    -----------------------------------------------------------
   TIME STEP LENGTH  1259.7      20.995     0.34992     1.45800E-02 3.99179E-05
 STRESS PERIOD TIME  1259.7      20.995     0.34992     1.45800E-02 3.99179E-05
         TOTAL TIME 2.05333E+05  3422.2      57.037      2.3765     6.50662E-03
1
1
                            STRESS PERIOD NO.  164, LENGTH =  0.1458000E-01
                            -----------------------------------------------

                              NUMBER OF TIME STEPS =     1

                               MULTIPLIER FOR DELT =     1.000

                            INITIAL TIME STEP SIZE =  0.1458000E-01

 WELL NO.  LAYER   ROW   COL   STRESS RATE         
 --------------------------------------------------
      1      1      1      1      0.2400E-03

      1 WELL 
 
 SOLVING FOR HEAD 

 OUTPUT CONTROL FOR STRESS PERIOD  164   TIME STEP    1
    SAVE HEAD FOR ALL LAYERS
    SAVE BUDGET
 UBDSV1 SAVING "         STORAGE" ON UNIT  31 AT TIME STEP  1, STRESS PERIOD 164
 UBDSV2 SAVING "   CONSTANT HEAD" ON UNIT  31 AT TIME STEP  1, STRESS PERIOD 164
 UBDSV1 SAVING "FLOW RIGHT FACE " ON UNIT  31 AT TIME STEP  1, STRESS PERIOD 164
 UBDSV4 SAVING "           WELLS" ON UNIT  31 AT TIME STEP  1, STRESS PERIOD 164

 SAVING SATURATED THICKNESS AND FLOW TERMS ON UNIT  333 FOR MT3DMS
 BY THE LINK-MT3DMS PACKAGE V7 AT TIME STEP    1, STRESS PERIOD  164


 HEAD WILL BE SAVED ON UNIT   30 AT END OF TIME STEP    1, STRESS PERIOD  164
1
  VOLUMETRIC BUDGET FOR ENTIRE MODEL AT END OF TIME STEP    1, STRESS PERIOD 164
  ------------------------------------------------------------------------------

     CUMULATIVE VOLUMES      L**3       RATES FOR THIS TIME STEP      L**3/T
     ------------------                 ------------------------

           IN:                                      IN:
           ---                                      ---
             STORAGE =           0.0000               STORAGE =           0.0000
       CONSTANT HEAD =           0.0000         CONSTANT HEAD =           0.0000
               WELLS =       5.7387E-04                 WELLS =       2.4000E-04

            TOTAL IN =       5.7387E-04              TOTAL IN =       2.4000E-04

          OUT:                                     OUT:
          ----                                     ----
             STORAGE =           0.0000               STORAGE =           0.0000
       CONSTANT HEAD =       5.7387E-04         CONSTANT HEAD =       2.4000E-04
               WELLS =           0.0000                 WELLS =           0.0000

           TOTAL OUT =       5.7387E-04             TOTAL OUT =       2.4000E-04

            IN - OUT =           0.0000              IN - OUT =      -1.4552E-11

 PERCENT DISCREPANCY =           0.00     PERCENT DISCREPANCY =           0.00






         TIME SUMMARY AT END OF TIME STEP    1 IN STRESS PERIOD  164
                    SECONDS     MINUTES      HOURS       DAYS        YEARS
                    -----------------------------------------------------------
   TIME STEP LENGTH  1259.7      20.995     0.34992     1.45800E-02 3.99179E-05
 STRESS PERIOD TIME  1259.7      20.995     0.34992     1.45800E-02 3.99179E-05
         TOTAL TIME 2.06593E+05  3443.2      57.387      2.3911     6.54653E-03
1

 Run end date and time (yyyy/mm/dd hh:mm:ss): 2024/07/25 13:14:32
 Elapsed run time:  0.052 Seconds

